1
CELL(abcABC):  7.447216 7.447216 7.447216 90.000000 90.000000 90.000000 cell{atomic_unit}  Traj: positions{atomic_unit}   Bead:       0
H -0.0014641409867470743 -7.313870859233257e-19 7.527780254083132e-19
1
CELL(abcABC):  7.447216 7.447216 7.447216 90.000000 90.000000 90.000000 cell{atomic_unit}  Traj: positions{atomic_unit}   Bead:       1
H -0.001474566715457001 8.421085150245046e-20 1.0460968672291696e-18
1
CELL(abcABC):  7.447216 7.447216 7.447216 90.000000 90.000000 90.000000 cell{atomic_unit}  Traj: positions{atomic_unit}   Bead:       2
H -0.0014953923256271356 1.226740887619144e-19 9.077317439641083e-19
1
CELL(abcABC):  7.447216 7.447216 7.447216 90.000000 90.000000 90.000000 cell{atomic_unit}  Traj: positions{atomic_unit}   Bead:       3
H -0.001526561930799192 6.943778556033818e-19 7.064623617150034e-19
1
CELL(abcABC):  7.447216 7.447216 7.447216 90.000000 90.000000 90.000000 cell{atomic_unit}  Traj: positions{atomic_unit}   Bead:       4
H -0.0015679811054285613 7.419926300320412e-19 -7.349847496107192e-19
1
CELL(abcABC):  7.447216 7.447216 7.447216 90.000000 90.000000 90.000000 cell{atomic_unit}  Traj: positions{atomic_unit}   Bead:       5
H -0.001619503847654326 1.1543252737209672e-18 -3.857678503551918e-19
1
CELL(abcABC):  7.447216 7.447216 7.447216 90.000000 90.000000 90.000000 cell{atomic_unit}  Traj: positions{atomic_unit}   Bead:       6
H -0.0016809146674556146 6.757471367232133e-19 1.0077491126124049e-19
1
CELL(abcABC):  7.447216 7.447216 7.447216 90.000000 90.000000 90.000000 cell{atomic_unit}  Traj: positions{atomic_unit}   Bead:       7
H -0.00175190536523897 8.283150694359409e-19 1.765023105076917e-19
1
CELL(abcABC):  7.447216 7.447216 7.447216 90.000000 90.000000 90.000000 cell{atomic_unit}  Traj: positions{atomic_unit}   Bead:       8
H -0.0018320459850228092 1.1397422370698937e-18 4.860430628700528e-19
1
CELL(abcABC):  7.447216 7.447216 7.447216 90.000000 90.000000 90.000000 cell{atomic_unit}  Traj: positions{atomic_unit}   Bead:       9
H -0.0019207493721286164 1.4480371735698845e-18 1.553514365920429e-19
1
CELL(abcABC):  7.447216 7.447216 7.447216 90.000000 90.000000 90.000000 cell{atomic_unit}  Traj: positions{atomic_unit}   Bead:       10
H -0.0020172287516125593 1.1363449898129566e-18 -4.990017667617521e-19
1
CELL(abcABC):  7.447216 7.447216 7.447216 90.000000 90.000000 90.000000 cell{atomic_unit}  Traj: positions{atomic_unit}   Bead:       11
H -0.0021204477901374777 5.880960259089517e-19 -3.4695242467355865e-20
1
CELL(abcABC):  7.447216 7.447216 7.447216 90.000000 90.000000 90.000000 cell{atomic_unit}  Traj: positions{atomic_unit}   Bead:       12
H -0.0022290627370541724 1.5312880431383814e-19 1.015331728250732e-19
1
CELL(abcABC):  7.447216 7.447216 7.447216 90.000000 90.000000 90.000000 cell{atomic_unit}  Traj: positions{atomic_unit}   Bead:       13
H -0.002341356495030327 2.7558409504252944e-19 -7.080839108645524e-19
1
CELL(abcABC):  7.447216 7.447216 7.447216 90.000000 90.000000 90.000000 cell{atomic_unit}  Traj: positions{atomic_unit}   Bead:       14
H -0.0024551648913380794 4.8674263790390215e-20 5.093446747558772e-19
1
CELL(abcABC):  7.447216 7.447216 7.447216 90.000000 90.000000 90.000000 cell{atomic_unit}  Traj: positions{atomic_unit}   Bead:       15
H -0.0025677960629525553 -3.086447513983398e-19 -9.129165312829506e-19
1
CELL(abcABC):  7.447216 7.447216 7.447216 90.000000 90.000000 90.000000 cell{atomic_unit}  Traj: positions{atomic_unit}   Bead:       16
H -0.002675944797077883 -6.548523062583422e-20 -5.718054622496059e-19
1
CELL(abcABC):  7.447216 7.447216 7.447216 90.000000 90.000000 90.000000 cell{atomic_unit}  Traj: positions{atomic_unit}   Bead:       17
H -0.0027756049558465136 2.6350074062111787e-19 5.430976420417609e-20
1
CELL(abcABC):  7.447216 7.447216 7.447216 90.000000 90.000000 90.000000 cell{atomic_unit}  Traj: positions{atomic_unit}   Bead:       18
H -0.0028619848327576967 2.7565759746965823e-19 -2.4924247128601015e-19
1
CELL(abcABC):  7.447216 7.447216 7.447216 90.000000 90.000000 90.000000 cell{atomic_unit}  Traj: positions{atomic_unit}   Bead:       19
H -0.002929432500402341 3.9899850843714993e-19 -2.964017281686533e-19
1
CELL(abcABC):  7.447216 7.447216 7.447216 90.000000 90.000000 90.000000 cell{atomic_unit}  Traj: positions{atomic_unit}   Bead:       20
H -0.0029713809438389367 4.456474324845773e-19 4.333922518263619e-21
1
CELL(abcABC):  7.447216 7.447216 7.447216 90.000000 90.000000 90.000000 cell{atomic_unit}  Traj: positions{atomic_unit}   Bead:       21
H -0.002980328467868274 3.959305107449948e-19 1.5618493947772814e-19
1
CELL(abcABC):  7.447216 7.447216 7.447216 90.000000 90.000000 90.000000 cell{atomic_unit}  Traj: positions{atomic_unit}   Bead:       22
H -0.0029491266593209896 2.997051875533057e-19 8.217876881687788e-20
1
CELL(abcABC):  7.447216 7.447216 7.447216 90.000000 90.000000 90.000000 cell{atomic_unit}  Traj: positions{atomic_unit}   Bead:       23
H -0.0028738847213551993 2.0755745211360853e-19 3.7880594791288175e-20
1
CELL(abcABC):  7.447216 7.447216 7.447216 90.000000 90.000000 90.000000 cell{atomic_unit}  Traj: positions{atomic_unit}   Bead:       24
H -0.002752557212400065 9.165660865169794e-20 2.446275864293882e-19
1
CELL(abcABC):  7.447216 7.447216 7.447216 90.000000 90.000000 90.000000 cell{atomic_unit}  Traj: positions{atomic_unit}   Bead:       25
H -0.002584909667264986 -5.722648684745478e-20 8.461134022799195e-20
1
CELL(abcABC):  7.447216 7.447216 7.447216 90.000000 90.000000 90.000000 cell{atomic_unit}  Traj: positions{atomic_unit}   Bead:       26
H -0.0023728506286044082 -1.0321921002803744e-19 1.6310012606971138e-19
1
CELL(abcABC):  7.447216 7.447216 7.447216 90.000000 90.000000 90.000000 cell{atomic_unit}  Traj: positions{atomic_unit}   Bead:       27
H -0.0021205993745061743 -8.519680585331376e-20 -1.1321424270614465e-19
1
CELL(abcABC):  7.447216 7.447216 7.447216 90.000000 90.000000 90.000000 cell{atomic_unit}  Traj: positions{atomic_unit}   Bead:       28
H -0.0018324084911967777 -1.806176202912201e-20 -6.234285303689933e-20
1
CELL(abcABC):  7.447216 7.447216 7.447216 90.000000 90.000000 90.000000 cell{atomic_unit}  Traj: positions{atomic_unit}   Bead:       29
H -0.0015112012415662568 5.736329378963735e-20 -8.546861285765509e-20
1
CELL(abcABC):  7.447216 7.447216 7.447216 90.000000 90.000000 90.000000 cell{atomic_unit}  Traj: positions{atomic_unit}   Bead:       30
H -0.0011609606783859953 3.0318956606091205e-20 -4.678461641601412e-20
1
CELL(abcABC):  7.447216 7.447216 7.447216 90.000000 90.000000 90.000000 cell{atomic_unit}  Traj: positions{atomic_unit}   Bead:       31
H -0.0007879372163655696 -6.772833994081835e-20 4.589069810019545e-20
1
CELL(abcABC):  7.447216 7.447216 7.447216 90.000000 90.000000 90.000000 cell{atomic_unit}  Traj: positions{atomic_unit}   Bead:       32
H -0.0004023185934962377 -1.232493577465726e-19 -1.180629605948347e-19
1
CELL(abcABC):  7.447216 7.447216 7.447216 90.000000 90.000000 90.000000 cell{atomic_unit}  Traj: positions{atomic_unit}   Bead:       33
H -1.5604783895120383e-05 -7.725942347278707e-20 3.477303331257842e-20
1
CELL(abcABC):  7.447216 7.447216 7.447216 90.000000 90.000000 90.000000 cell{atomic_unit}  Traj: positions{atomic_unit}   Bead:       34
H 0.00036189162912327635 1.2502492521189403e-21 -1.5201400673990977e-19
1
CELL(abcABC):  7.447216 7.447216 7.447216 90.000000 90.000000 90.000000 cell{atomic_unit}  Traj: positions{atomic_unit}   Bead:       35
H 0.000724525821591206 5.629368338585106e-20 3.9314589661718296e-20
1
CELL(abcABC):  7.447216 7.447216 7.447216 90.000000 90.000000 90.000000 cell{atomic_unit}  Traj: positions{atomic_unit}   Bead:       36
H 0.001067924479747515 3.2392541985966105e-20 -6.055549476692223e-20
1
CELL(abcABC):  7.447216 7.447216 7.447216 90.000000 90.000000 90.000000 cell{atomic_unit}  Traj: positions{atomic_unit}   Bead:       37
H 0.0013882340600252937 -3.017692380977735e-20 -1.7829819530495543e-20
1
CELL(abcABC):  7.447216 7.447216 7.447216 90.000000 90.000000 90.000000 cell{atomic_unit}  Traj: positions{atomic_unit}   Bead:       38
H 0.0016804632478722506 -7.830475677139641e-20 9.67440233276784e-21
1
CELL(abcABC):  7.447216 7.447216 7.447216 90.000000 90.000000 90.000000 cell{atomic_unit}  Traj: positions{atomic_unit}   Bead:       39
H 0.001938728716055943 -4.034158072773177e-20 -7.314544797165016e-20
1
CELL(abcABC):  7.447216 7.447216 7.447216 90.000000 90.000000 90.000000 cell{atomic_unit}  Traj: positions{atomic_unit}   Bead:       40
H 0.0021585412978674936 6.05319018227575e-20 1.4971284242908992e-19
1
CELL(abcABC):  7.447216 7.447216 7.447216 90.000000 90.000000 90.000000 cell{atomic_unit}  Traj: positions{atomic_unit}   Bead:       41
H 0.0023371868303834896 9.955802484402133e-20 -6.37502800843576e-20
1
CELL(abcABC):  7.447216 7.447216 7.447216 90.000000 90.000000 90.000000 cell{atomic_unit}  Traj: positions{atomic_unit}   Bead:       42
H 0.0024766309828081266 5.873828272718727e-20 1.3161432107683175e-19
1
CELL(abcABC):  7.447216 7.447216 7.447216 90.000000 90.000000 90.000000 cell{atomic_unit}  Traj: positions{atomic_unit}   Bead:       43
H 0.0025819174740124794 -5.247151151462468e-20 -1.0180085622347348e-19
1
CELL(abcABC):  7.447216 7.447216 7.447216 90.000000 90.000000 90.000000 cell{atomic_unit}  Traj: positions{atomic_unit}   Bead:       44
H 0.0026579482152969095 -8.303561314436324e-20 1.0836585137891672e-19
1
CELL(abcABC):  7.447216 7.447216 7.447216 90.000000 90.000000 90.000000 cell{atomic_unit}  Traj: positions{atomic_unit}   Bead:       45
H 0.0027092969541693307 -2.1537115479030374e-20 4.10477965512215e-20
1
CELL(abcABC):  7.447216 7.447216 7.447216 90.000000 90.000000 90.000000 cell{atomic_unit}  Traj: positions{atomic_unit}   Bead:       46
H 0.0027401527608871385 6.339951628185074e-20 6.847795032970798e-20
1
CELL(abcABC):  7.447216 7.447216 7.447216 90.000000 90.000000 90.000000 cell{atomic_unit}  Traj: positions{atomic_unit}   Bead:       47
H 0.0027542660130321505 9.714829653978589e-20 1.137362592636912e-19
1
CELL(abcABC):  7.447216 7.447216 7.447216 90.000000 90.000000 90.000000 cell{atomic_unit}  Traj: positions{atomic_unit}   Bead:       48
H 0.002754826473340431 6.45528037200032e-20 -7.224421528944962e-20
1
CELL(abcABC):  7.447216 7.447216 7.447216 90.000000 90.000000 90.000000 cell{atomic_unit}  Traj: positions{atomic_unit}   Bead:       49
H 0.0027446317631218643 9.850663183974554e-21 1.332792627513757e-19
1
CELL(abcABC):  7.447216 7.447216 7.447216 90.000000 90.000000 90.000000 cell{atomic_unit}  Traj: positions{atomic_unit}   Bead:       50
H 0.002726172819643158 -5.362121519951952e-20 -1.2427741378077653e-19
1
CELL(abcABC):  7.447216 7.447216 7.447216 90.000000 90.000000 90.000000 cell{atomic_unit}  Traj: positions{atomic_unit}   Bead:       51
H 0.0027016479768145513 -5.744144776740994e-20 2.448235159708105e-19
1
CELL(abcABC):  7.447216 7.447216 7.447216 90.000000 90.000000 90.000000 cell{atomic_unit}  Traj: positions{atomic_unit}   Bead:       52
H 0.002672981484317526 -3.3576683422061017e-20 -1.4137657431266002e-19
1
CELL(abcABC):  7.447216 7.447216 7.447216 90.000000 90.000000 90.000000 cell{atomic_unit}  Traj: positions{atomic_unit}   Bead:       53
H 0.0026418446322668274 2.8014389340667076e-20 1.9021301893463377e-19
1
CELL(abcABC):  7.447216 7.447216 7.447216 90.000000 90.000000 90.000000 cell{atomic_unit}  Traj: positions{atomic_unit}   Bead:       54
H 0.0026096779574539195 2.894259154027833e-20 -2.1283076076749293e-19
1
CELL(abcABC):  7.447216 7.447216 7.447216 90.000000 90.000000 90.000000 cell{atomic_unit}  Traj: positions{atomic_unit}   Bead:       55
H 0.002577713394439793 1.0041172663123516e-20 1.079420607121359e-19
1
CELL(abcABC):  7.447216 7.447216 7.447216 90.000000 90.000000 90.000000 cell{atomic_unit}  Traj: positions{atomic_unit}   Bead:       56
H 0.002546998002406411 -1.1922891253609511e-20 -1.1737424436911705e-19
1
CELL(abcABC):  7.447216 7.447216 7.447216 90.000000 90.000000 90.000000 cell{atomic_unit}  Traj: positions{atomic_unit}   Bead:       57
H 0.0025184347511586864 -1.1396967322941268e-20 1.3034813039757315e-19
1
CELL(abcABC):  7.447216 7.447216 7.447216 90.000000 90.000000 90.000000 cell{atomic_unit}  Traj: positions{atomic_unit}   Bead:       58
H 0.0024927701196040815 -2.11956599561161e-20 -7.789667025511462e-20
1
CELL(abcABC):  7.447216 7.447216 7.447216 90.000000 90.000000 90.000000 cell{atomic_unit}  Traj: positions{atomic_unit}   Bead:       59
H 0.0024705925065677706 -1.3391334200940898e-20 4.881561674807136e-20
1
CELL(abcABC):  7.447216 7.447216 7.447216 90.000000 90.000000 90.000000 cell{atomic_unit}  Traj: positions{atomic_unit}   Bead:       60
H 0.00245235621031585 -3.0122237343476905e-21 -5.748721364119083e-20
1
CELL(abcABC):  7.447216 7.447216 7.447216 90.000000 90.000000 90.000000 cell{atomic_unit}  Traj: positions{atomic_unit}   Bead:       61
H 0.0024384014056686425 6.282937621495552e-21 2.687195060910205e-20
1
CELL(abcABC):  7.447216 7.447216 7.447216 90.000000 90.000000 90.000000 cell{atomic_unit}  Traj: positions{atomic_unit}   Bead:       62
H 0.002428969813430238 8.308819434611232e-21 -1.9840275936424475e-20
1
CELL(abcABC):  7.447216 7.447216 7.447216 90.000000 90.000000 90.000000 cell{atomic_unit}  Traj: positions{atomic_unit}   Bead:       63
H 0.002424216254766057 5.949296774140813e-21 1.3870104515348308e-20
