2
CELL(abcABC):  300.0 300.0 300.0 90.0 90.0 90.0 cell{atomic_unit}  Traj: positions{angstrom}   
H    -0.9900000   0.0000000   0.0000000  
H    -1.0100000   0.0000000   0.0000000  
2
CELL(abcABC):  300.0 300.0 300.0 90.0 90.0 90.0 cell{atomic_unit}  Traj: positions{angstrom}   
H    -0.4900000   0.0000000   0.0000000  
H    -0.5100000   0.0000000   0.0000000  
2
CELL(abcABC):  300.0 300.0 300.0 90.0 90.0 90.0 cell{atomic_unit}  Traj: positions{angstrom}   
H    -0.1900000   0.0000000   0.0000000  
H    -0.2100000   0.0000000   0.0000000  
2
CELL(abcABC):  300.0 300.0 300.0 90.0 90.0 90.0 cell{atomic_unit}  Traj: positions{angstrom}   
H     0.0100000   0.0000000   0.0000000  
H    -0.0100000   0.0000000   0.0000000  
2
CELL(abcABC):  300.0 300.0 300.0 90.0 90.0 90.0 cell{atomic_unit}  Traj: positions{angstrom}   
H     0.2100000   0.0000000   0.0000000  
H     0.1900000   0.0000000   0.0000000  
2
CELL(abcABC):  300.0 300.0 300.0 90.0 90.0 90.0 cell{atomic_unit}  Traj: positions{angstrom}   
H     0.5100000   0.0000000   0.0000000  
H     0.4900000   0.0000000   0.0000000  
2
CELL(abcABC):  300.0 300.0 300.0 90.0 90.0 90.0 cell{atomic_unit}  Traj: positions{angstrom}   
H     1.0100000   0.0000000   0.0000000  
H     0.9900000   0.0000000   0.0000000  
