2
CELL(abcABC):  300.000000 300.000000 300.000000 90.000000 90.000000 90.000000 cell{atomic_unit}  Traj: positions{angstrom}   Bead:       0
H -0.9935982233821304 -4.573966626921123e-17 9.16912103464035e-17
H -1.16252310969352 -1.2907624735334814e-17 -2.377010437967535e-18
2
CELL(abcABC):  300.000000 300.000000 300.000000 90.000000 90.000000 90.000000 cell{atomic_unit}  Traj: positions{angstrom}   Bead:       1
H -0.5054690688526667 -5.751561389406393e-17 3.303699125286364e-17
H -0.7686764728493484 -3.185079244711449e-19 -9.107532327032976e-18
2
CELL(abcABC):  300.000000 300.000000 300.000000 90.000000 90.000000 90.000000 cell{atomic_unit}  Traj: positions{angstrom}   Bead:       2
H -0.2106242709685076 -1.7868441595436223e-17 4.9371129615445175e-17
H -0.5901414331274335 -1.5328872451718293e-17 7.39550559230525e-18
2
CELL(abcABC):  300.000000 300.000000 300.000000 90.000000 90.000000 90.000000 cell{atomic_unit}  Traj: positions{angstrom}   Bead:       3
H -0.009304867470296506 1.5515745110935555e-17 2.851791573170403e-17
H -0.47592305533323137 -7.337546161239025e-18 -3.758318693982708e-18
2
CELL(abcABC):  300.000000 300.000000 300.000000 90.000000 90.000000 90.000000 cell{atomic_unit}  Traj: positions{angstrom}   Bead:       4
H 0.1955013320246812 -1.716802868625786e-17 1.9056511043904075e-17
H -0.29305449088430846 -1.922376416317333e-18 1.5762585027397545e-17
2
CELL(abcABC):  300.000000 300.000000 300.000000 90.000000 90.000000 90.000000 cell{atomic_unit}  Traj: positions{angstrom}   Bead:       5
H 0.49916976376077327 4.589278311395683e-17 -9.076064089720258e-18
H 0.07089171933440339 1.472832600514752e-17 2.536466406103001e-17
2
CELL(abcABC):  300.000000 300.000000 300.000000 90.000000 90.000000 90.000000 cell{atomic_unit}  Traj: positions{angstrom}   Bead:       6
H 0.9962424099495448 -6.126657931724998e-17 9.547945400782463e-18
H 0.6718236560920565 -8.633820128204627e-18 -3.316467525186314e-18
