2
CELL(abcABC):  300.000000 300.000000 300.000000 90.000000 90.000000 90.000000 cell{atomic_unit}  Traj: positions{atomic_unit}   Bead:       0
H -0.00213580639646415 4.7038507727226256e-17 -1.141394379621969e-16
H 0.005904686526475644 1.240839804081412e-17 7.965135064273409e-18
2
CELL(abcABC):  300.000000 300.000000 300.000000 90.000000 90.000000 90.000000 cell{atomic_unit}  Traj: positions{atomic_unit}   Bead:       1
H -0.007025880494995078 4.7484424339255685e-17 -4.718683831322215e-17
H -0.005773450317463057 -7.053530580000743e-18 -2.2236160546112982e-17
2
CELL(abcABC):  300.000000 300.000000 300.000000 90.000000 90.000000 90.000000 cell{atomic_unit}  Traj: positions{atomic_unit}   Bead:       2
H -0.0036587984274340304 3.0538593615279055e-17 -6.308382462458425e-17
H -0.007141722763555614 2.463407261099189e-18 -1.85156079686197e-17
2
CELL(abcABC):  300.000000 300.000000 300.000000 90.000000 90.000000 90.000000 cell{atomic_unit}  Traj: positions{atomic_unit}   Bead:       3
H -0.00016282457971503108 -2.5102009269110547e-17 -3.632091819347922e-17
H -0.007324165820949159 7.128201533128259e-18 3.062916076537249e-18
2
CELL(abcABC):  300.000000 300.000000 300.000000 90.000000 90.000000 90.000000 cell{atomic_unit}  Traj: positions{atomic_unit}   Bead:       4
H 0.0034244651805068107 -2.09797101368536e-17 -1.2676781108519153e-17
H -0.0068598788126853424 -3.6018203342524256e-18 -1.0745637399177005e-17
2
CELL(abcABC):  300.000000 300.000000 300.000000 90.000000 90.000000 90.000000 cell{atomic_unit}  Traj: positions{atomic_unit}   Bead:       5
H 0.006991427203070271 -4.994255849707407e-17 1.457656505721257e-17
H -0.002491360887937327 -1.904608116546966e-17 -2.0236464672510406e-17
2
CELL(abcABC):  300.000000 300.000000 300.000000 90.000000 90.000000 90.000000 cell{atomic_unit}  Traj: positions{atomic_unit}   Bead:       6
H 0.0020527000739091715 2.942400277635131e-18 -1.4338250933797416e-17
H 0.0068110129841821715 9.892337570748665e-18 -4.874953053196282e-18
