2
CELL(abcABC):  300.000000 300.000000 300.000000 90.000000 90.000000 90.000000 cell{atomic_unit}  Traj: positions{atomic_unit}   Bead:       0
H -0.0019602247422679797 -1.7848013714953415e-17 -3.201796593246492e-17
H 0.002244815640261782 1.1973317173894937e-17 5.5524658941233255e-18
2
CELL(abcABC):  300.000000 300.000000 300.000000 90.000000 90.000000 90.000000 cell{atomic_unit}  Traj: positions{atomic_unit}   Bead:       1
H -0.0070172994356645915 5.632726656256157e-17 -2.2841513390479022e-17
H -0.007178722594719676 2.545936277730871e-17 1.5419501382808034e-17
2
CELL(abcABC):  300.000000 300.000000 300.000000 90.000000 90.000000 90.000000 cell{atomic_unit}  Traj: positions{atomic_unit}   Bead:       2
H -0.003624407702762272 4.008130590242223e-18 -2.58603854868285e-17
H -0.006634731853068251 -1.949023305228202e-17 9.178837285847471e-18
2
CELL(abcABC):  300.000000 300.000000 300.000000 90.000000 90.000000 90.000000 cell{atomic_unit}  Traj: positions{atomic_unit}   Bead:       3
H -0.0001785211451757227 -5.590358004328683e-18 -2.4105318015630722e-17
H -0.004828232132389832 6.075249896872834e-18 -1.8400709120821126e-18
2
CELL(abcABC):  300.000000 300.000000 300.000000 90.000000 90.000000 90.000000 cell{atomic_unit}  Traj: positions{atomic_unit}   Bead:       4
H 0.003364268305355535 1.4226128515093076e-17 -2.1585921783877103e-17
H -0.0014575765550449338 2.6919349249368875e-18 -2.146163973642157e-17
2
CELL(abcABC):  300.000000 300.000000 300.000000 90.000000 90.000000 90.000000 cell{atomic_unit}  Traj: positions{atomic_unit}   Bead:       5
H 0.006976013008360486 -5.781011549287991e-18 7.585151427253739e-18
H 0.004588648812473713 -1.624343603009268e-17 -2.145855420786444e-17
2
CELL(abcABC):  300.000000 300.000000 300.000000 90.000000 90.000000 90.000000 cell{atomic_unit}  Traj: positions{atomic_unit}   Bead:       6
H 0.0018926520879968892 3.8148887507302225e-17 -8.169095240597846e-18
H 0.005612527796876807 9.962057977809188e-18 5.2652898873279925e-18
