2
CELL(abcABC):  300.000000 300.000000 300.000000 90.000000 90.000000 90.000000 cell{atomic_unit}  Traj: positions{angstrom}   Bead:       0
H -0.9922613158290482 -4.281892298831159e-17 9.26613698618491e-17
H -1.1793834870370052 -9.651099193544778e-18 -8.854737799496713e-18
2
CELL(abcABC):  300.000000 300.000000 300.000000 90.000000 90.000000 90.000000 cell{atomic_unit}  Traj: positions{angstrom}   Bead:       1
H -0.5058464431463752 -5.0418503788594397e-17 4.5013071564275657e-17
H -0.8008866005193016 -1.1101028999154693e-17 -6.701036865272868e-18
2
CELL(abcABC):  300.000000 300.000000 300.000000 90.000000 90.000000 90.000000 cell{atomic_unit}  Traj: positions{angstrom}   Bead:       2
H -0.2111625980960854 -2.3051240489174408e-17 5.640141767627605e-17
H -0.6434314900029936 -1.4534347639156646e-18 2.2673228062507316e-17
2
CELL(abcABC):  300.000000 300.000000 300.000000 90.000000 90.000000 90.000000 cell{atomic_unit}  Traj: positions{angstrom}   Bead:       3
H -0.009149604884212474 2.990700369370928e-17 3.111666085243092e-17
H -0.5523931359361803 -6.756338874001487e-18 -2.50300603110392e-18
2
CELL(abcABC):  300.000000 300.000000 300.000000 90.000000 90.000000 90.000000 cell{atomic_unit}  Traj: positions{angstrom}   Bead:       4
H 0.196315165324358 1.411769595069782e-17 1.2963393533767466e-17
H -0.39023393003711254 1.5414802431416189e-18 8.780487104648174e-18
2
CELL(abcABC):  300.000000 300.000000 300.000000 90.000000 90.000000 90.000000 cell{atomic_unit}  Traj: positions{angstrom}   Bead:       5
H 0.49973081182435447 5.078553866188178e-17 -1.3070157297098202e-17
H -0.034943724225380245 1.7329427780649415e-17 2.1082721637978728e-17
2
CELL(abcABC):  300.000000 300.000000 300.000000 90.000000 90.000000 90.000000 cell{atomic_unit}  Traj: positions{angstrom}   Bead:       6
H 0.9949952374609139 -2.116766541416457e-17 1.5313745652791064e-17
H 0.5758187699845966 -1.2227715583069398e-17 3.1348322341259936e-18
