6
CELL(abcABC):  200.000000 200.000000 200.000000 90.000000 90.000000 90.000000 cell{atomic_unit}  Traj: positions{angstrom}   Bead:       0
H 1.2813799579505056 1.5364851284756968 1.3006113999994864
C 0.5807902649239028 0.7142840367795829 0.5986609171535152
H -0.0005416592143179827 0.10783776874173202 1.2938408824828918
H 1.2772411582576173 0.10520275270753045 0.021620881775496724
H -0.06359645910741815 1.3086714132189976 -0.04977447732458605
H 1.8269066779100953 2.1767079804798994 1.8471995932358434
6
CELL(abcABC):  200.000000 200.000000 200.000000 90.000000 90.000000 90.000000 cell{atomic_unit}  Traj: positions{angstrom}   Bead:       1
H 1.283961934548289 1.5395152930780522 1.3031983886436174
C 0.5805897266818386 0.7140486885321073 0.598459989756759
H -0.0005170926430706969 0.10787716938321519 1.2940436536296605
H 1.2774438991252193 0.10524178421583073 0.02164625139733157
H -0.06358068564325571 1.3088782589421533 -0.049759062377808756
H 1.8264717650953775 2.1761975712251087 1.8467638325346747
6
CELL(abcABC):  200.000000 200.000000 200.000000 90.000000 90.000000 90.000000 cell{atomic_unit}  Traj: positions{angstrom}   Bead:       2
H 1.2890114098662622 1.5454412726892766 1.3082576654573799
C 0.5801937704554216 0.7135840010750875 0.5980632651453093
H -0.00046963090525187386 0.10795360126225839 1.2944406463624287
H 1.2778408338724785 0.10531749202971981 0.021695286809597085
H -0.06355047081628658 1.309283119419527 -0.049729552148088677
H 1.8256669418376192 2.1752530387435254 1.8459574401306382
6
CELL(abcABC):  200.000000 200.000000 200.000000 90.000000 90.000000 90.000000 cell{atomic_unit}  Traj: positions{angstrom}   Bead:       3
H 1.296290187323104 1.553983523265703 1.3155505707624016
C 0.5796136275002579 0.7129031551985411 0.5974819963443178
H -0.00040239960907062364 0.1080625874595185 1.295015096980231
H 1.2784152035194867 0.10542542739236084 0.021764798478804703
H -0.06350826744623184 1.309868705312531 -0.049688374426607305
H 1.8246188862587858 2.1740230509924134 1.844907340916468
6
CELL(abcABC):  200.000000 200.000000 200.000000 90.000000 90.000000 90.000000 cell{atomic_unit}  Traj: positions{angstrom}   Bead:       4
H 1.3054286116259666 1.5647082227900315 1.3247067306862215
C 0.5788679863455357 0.7120280834109693 0.5967349081106641
H -0.0003195617860453163 0.10819805484743043 1.2957428191448117
H 1.2791428278089716 0.105559558547368 0.02185053035289424
H -0.06345725073925026 1.3106101316614638 -0.04963866685244957
H 1.8235060463955548 2.1727170325389884 1.8437923306038342
6
CELL(abcABC):  200.000000 200.000000 200.000000 90.000000 90.000000 90.000000 cell{atomic_unit}  Traj: positions{angstrom}   Bead:       5
H 1.3159364950283174 1.5770400942532252 1.3352350047610269
C 0.5779836373878916 0.710990226423751 0.5958488427780056
H -0.00022576050010778437 0.10835303877521504 1.2965936142369552
H 1.2799935145669032 0.10571297368046396 0.02194772196968876
H -0.06340080292574823 1.3114764232275857 -0.049583762415683
H 1.8225375522422573 2.1715804160404253 1.8428219467638127
6
CELL(abcABC):  200.000000 200.000000 200.000000 90.000000 90.000000 90.000000 cell{atomic_unit}  Traj: positions{angstrom}   Bead:       6
H 1.3272460160685517 1.5903127511668114 1.3465664683055576
C 0.5769944497799168 0.7098293324527037 0.594857735169169
H -0.00012553849395001836 0.10852045364392389 1.2975333608697825
H 1.280933148201785 0.10587864837130245 0.022051696346889357
H -0.0633420073377516 1.3124327024204614 -0.049526685815895144
H 1.8219193293855724 2.170854873618162 1.8422025164708733
6
CELL(abcABC):  200.000000 200.000000 200.000000 90.000000 90.000000 90.000000 cell{atomic_unit}  Traj: positions{angstrom}   Bead:       7
H 1.338783100455117 1.603852469289497 1.358125932305184
C 0.5759384867858645 0.7085900718664581 0.5937997223772165
H -2.2886294593692154e-05 0.10869374961475284 1.2985265969563888
H 1.281926271069639 0.10605009783288906 0.022158321789532785
H -0.0632833016148978 1.3134428472306496 -0.04946981060696673
H 1.8218137055455994 2.170730911418327 1.8420966839430264
6
CELL(abcABC):  200.000000 200.000000 200.000000 90.000000 90.000000 90.000000 cell{atomic_unit}  Traj: positions{angstrom}   Bead:       8
H 1.3500436536718023 1.6170676517771134 1.3694083237971226
C 0.5748541283165755 0.7073174866484352 0.5927132587634455
H 7.897021269105217e-05 0.10886730467116815 1.2995391408752828
H 1.2829387046342993 0.10622176394341454 0.022264234740430638
H -0.063226384177553 1.3144721469647866 -0.049414770894011084
H 1.822306473419293 2.1713092149376743 1.8425904092054728
6
CELL(abcABC):  200.000000 200.000000 200.000000 90.000000 90.000000 90.000000 cell{atomic_unit}  Traj: positions{angstrom}   Bead:       9
H 1.3606455472613097 1.6295098391782772 1.380030772735259
C 0.5737765797900654 0.706052893291527 0.5916336180862348
H 0.00017756404591446297 0.10903654376796104 1.3005402081073527
H 1.2839396669665188 0.10638913037107349 0.022366843270153168
H -0.06317232456287879 1.315489416470178 -0.049362576592340224
H 1.8233944084820626 2.1725859998253494 1.8436804612585873
6
CELL(abcABC):  200.000000 200.000000 200.000000 90.000000 90.000000 90.000000 cell{atomic_unit}  Traj: positions{angstrom}   Bead:       10
H 1.370342224103927 1.6408896831451176 1.3897462524344717
C 0.5727357341995069 0.7048313736211138 0.5905907512430127
H 0.0002710502048789719 0.10919785940518362 1.3015036385896308
H 1.2849029978442508 0.10654863890403063 0.022464194914150526
H -0.06312176802897798 1.3164681980067023 -0.04931382100507834
H 1.8249957630318139 2.1744653252025206 1.8452849294906961
6
CELL(abcABC):  200.000000 200.000000 200.000000 90.000000 90.000000 90.000000 cell{atomic_unit}  Traj: positions{angstrom}   Bead:       11
H 1.3790050368163913 1.6510562153214365 1.3984258791005755
C 0.571755511883246 0.7036809999553914 0.5896086247608348
H 0.00035803744806268625 0.10934845223612961 1.302408377531332
H 1.2858076430954617 0.10669753074233966 0.022554811889798188
H -0.06307513530346077 1.317387213860119 -0.04926888306868775
H 1.8269765841485788 2.1767899820615386 1.8472695951092268
6
CELL(abcABC):  200.000000 200.000000 200.000000 90.000000 90.000000 90.000000 cell{atomic_unit}  Traj: positions{angstrom}   Bead:       12
H 1.386590528796152 1.6599584435215127 1.406026122214032
C 0.5708542457534669 0.7026232873912889 0.588705607012449
H 0.00043746388521525865 0.1094861788890589 1.303238241765739
H 1.2866374210728264 0.10683369448010996 0.022637566388405073
H -0.06303274173186521 1.3182301112316408 -0.049228046021100334
H 1.8291796179343867 2.1793754160425975 1.8494768934092822
6
CELL(abcABC):  200.000000 200.000000 200.000000 90.000000 90.000000 90.000000 cell{atomic_unit}  Traj: positions{angstrom}   Bead:       13
H 1.3931072176242003 1.6676063601638644 1.4125555112349395
C 0.5700455651761481 0.7016742312515701 0.5878953539860284
H 0.0005085149135432428 0.109609422173928 1.3039812687621255
H 1.2873803698096702 0.10695553625864196 0.022711595414077107
H -0.0629948519296465 1.3189847964700423 -0.04919155038518244
H 1.8314475661904894 2.182037025199025 1.8517492217592062
6
CELL(abcABC):  200.000000 200.000000 200.000000 90.000000 90.000000 90.000000 cell{atomic_unit}  Traj: positions{angstrom}   Bead:       14
H 1.3985893324848024 1.6740401185292122 1.4180483188476813
C 0.569339382204047 0.7008454646756747 0.5871877976421124
H 0.0005705506829914928 0.10971695938149148 1.3046288609862764
H 1.2880278927712028 0.10706185088838475 0.022776225527869492
H -0.06296171312440556 1.3196425683143262 -0.04915962597513884
H 1.8336379218419654 2.1846075717404214 1.8539438051867458
6
CELL(abcABC):  200.000000 200.000000 200.000000 90.000000 90.000000 90.000000 cell{atomic_unit}  Traj: positions{angstrom}   Bead:       15
H 1.4030795687715985 1.6793098159491036 1.4225473111622602
C 0.5687427757313435 0.7001452957650771 0.5865900311646739
H 0.0006230294080282607 0.10980782824468305 1.3051749763137752
H 1.2885739498435635 0.10715168961275003 0.02283089213593265
H -0.0629335950402218 1.3201972965714392 -0.049132531288214945
H 1.8356304726258568 2.186945980921873 1.8559402039388153
6
CELL(abcABC):  200.000000 200.000000 200.000000 90.000000 90.000000 90.000000 cell{atomic_unit}  Traj: positions{angstrom}   Bead:       16
H 1.40661919974493 1.6834638891659837 1.4260938403815973
C 0.5682607207690838 0.6995795630801542 0.5861070391773802
H 0.000665515497782912 0.10988130025972226 1.3056155163006085
H 1.2890144429594033 0.10722433158795051 0.022875143296892927
H -0.0629107524715263 1.320644810890205 -0.04911051369352757
H 1.8373294277742571 2.18893983543114 1.8576424428386922
6
CELL(abcABC):  200.000000 200.000000 200.000000 90.000000 90.000000 90.000000 cell{atomic_unit}  Traj: positions{angstrom}   Bead:       17
H 1.4092431080597976 1.6865432779488954 1.4287228595779804
C 0.5678966376984869 0.6991522805978534 0.5857422485360985
H 0.000697669860505655 0.10993683795614828 1.3059477893577294
H 1.28934668065083 0.10727924380150845 0.022908628959815432
H -0.06289340854262473 1.3209823632410256 -0.04909379155915592
H 1.8386623902506882 2.190504170692366 1.8589779834435902
6
CELL(abcABC):  200.000000 200.000000 200.000000 90.000000 90.000000 90.000000 cell{atomic_unit}  Traj: positions{angstrom}   Bead:       18
H 1.4109777721186214 1.6885790588871112 1.4304609011615772
C 0.5676527871397505 0.6988661012495571 0.585497924127029
H 0.000719242833421563 0.10997406286303883 1.3061701043494456
H 1.2895689719374115 0.10731605047467513 0.02293109264054067
H -0.06288174186472063 1.3212082207235185 -0.04908254065920334
H 1.8395780537228432 2.19157877368875 1.859895418757238
6
CELL(abcABC):  200.000000 200.000000 200.000000 90.000000 90.000000 90.000000 cell{atomic_unit}  Traj: positions{angstrom}   Bead:       19
H 1.411840750579711 1.6895918397910612 1.4313255595461039
C 0.5675305391070548 0.6987226328079508 0.5853754385550514
H 0.0007300700924808551 0.10999273392995894 1.3062814841529595
H 1.2896803398372605 0.1073345120794138 0.022942366129989785
H -0.0628758767001022 1.3213213786287243 -0.049076883717784646
H 1.8400437922137398 2.1921253545530246 1.8603620587066325
