1
# CELL(abcABC):  188.97261   188.97261   188.97261    90.00000    90.00000    90.00000  Step:           0  Bead:       3 forces{atomic_unit}  cell{atomic_unit}
       H  0.00000e+00  0.00000e+00  0.00000e+00
1
# CELL(abcABC):  188.97261   188.97261   188.97261    90.00000    90.00000    90.00000  Step:           1  Bead:       3 forces{atomic_unit}  cell{atomic_unit}
       H -5.66178e-04 -2.21515e-03  1.93644e-03
1
# CELL(abcABC):  188.97261   188.97261   188.97261    90.00000    90.00000    90.00000  Step:           2  Bead:       3 forces{atomic_unit}  cell{atomic_unit}
       H -1.31442e-03 -4.40749e-03  3.19808e-03
1
# CELL(abcABC):  188.97261   188.97261   188.97261    90.00000    90.00000    90.00000  Step:           3  Bead:       3 forces{atomic_unit}  cell{atomic_unit}
       H -3.53544e-03 -4.78502e-03  2.26692e-03
1
# CELL(abcABC):  188.97261   188.97261   188.97261    90.00000    90.00000    90.00000  Step:           4  Bead:       3 forces{atomic_unit}  cell{atomic_unit}
       H -8.13938e-03 -4.60688e-03 -5.54356e-04
1
# CELL(abcABC):  188.97261   188.97261   188.97261    90.00000    90.00000    90.00000  Step:           5  Bead:       3 forces{atomic_unit}  cell{atomic_unit}
       H -1.17357e-02 -4.92209e-03 -3.25921e-03
1
# CELL(abcABC):  188.97261   188.97261   188.97261    90.00000    90.00000    90.00000  Step:           6  Bead:       3 forces{atomic_unit}  cell{atomic_unit}
       H -1.14845e-02 -6.70805e-03 -6.65432e-03
1
# CELL(abcABC):  188.97261   188.97261   188.97261    90.00000    90.00000    90.00000  Step:           7  Bead:       3 forces{atomic_unit}  cell{atomic_unit}
       H -1.01139e-02 -7.19405e-03 -8.81903e-03
1
# CELL(abcABC):  188.97261   188.97261   188.97261    90.00000    90.00000    90.00000  Step:           8  Bead:       3 forces{atomic_unit}  cell{atomic_unit}
       H -9.26037e-03 -4.20483e-03 -1.03520e-02
1
# CELL(abcABC):  188.97261   188.97261   188.97261    90.00000    90.00000    90.00000  Step:           9  Bead:       3 forces{atomic_unit}  cell{atomic_unit}
       H -6.56856e-03  4.14897e-04 -1.06636e-02
