6
# CELL(abcABC):  200.00000   200.00000   200.00000    90.00000    90.00000    90.00000  Step:           0  Bead:       0 forces{atomic_unit}  cell{atomic_unit}
       H -6.36781e-02 -1.40003e-02 -1.24155e-02
       C  4.12857e-02  4.69970e-04  2.20023e-03
       H -5.23040e-04 -1.01168e-02 -9.43820e-03
       H  1.17088e-02  2.02792e-02  1.23284e-03
       H  1.11799e-02  3.36164e-03  1.84152e-02
       H  2.67933e-05  6.25781e-06  5.37450e-06
6
# CELL(abcABC):  200.00000   200.00000   200.00000    90.00000    90.00000    90.00000  Step:           1  Bead:       0 forces{atomic_unit}  cell{atomic_unit}
       H -6.00081e-02 -2.64261e-02 -2.08026e-02
       C -6.19825e-02  4.45079e-02  3.51644e-02
       H  1.48908e-02 -2.59324e-02 -2.30834e-02
       H  5.56315e-02 -2.64253e-02  3.85024e-02
       H  5.14442e-02  3.42696e-02 -2.97861e-02
       H  2.40619e-05  6.20934e-06  5.29912e-06
6
# CELL(abcABC):  200.00000   200.00000   200.00000    90.00000    90.00000    90.00000  Step:           2  Bead:       0 forces{atomic_unit}  cell{atomic_unit}
       H -3.69180e-02 -1.55026e-02 -1.15361e-02
       C -8.51516e-02  2.96142e-02  2.21812e-02
       H  1.33411e-02 -2.00777e-02 -1.75406e-02
       H  5.62946e-02 -2.89712e-02  3.92434e-02
       H  5.24101e-02  3.49310e-02 -3.23532e-02
       H  2.38326e-05  6.22573e-06  5.30734e-06
6
# CELL(abcABC):  200.00000   200.00000   200.00000    90.00000    90.00000    90.00000  Step:           3  Bead:       0 forces{atomic_unit}  cell{atomic_unit}
       H -1.16109e-02 -2.44774e-04  1.17138e-03
       C -7.63595e-02 -4.59712e-03 -1.06037e-02
       H  9.43816e-04  1.30931e-03  2.82866e-03
       H  4.56440e-02 -2.62222e-02  3.45414e-02
       H  4.13600e-02  2.97489e-02 -2.79428e-02
       H  2.26742e-05  5.92718e-06  5.05116e-06
6
# CELL(abcABC):  200.00000   200.00000   200.00000    90.00000    90.00000    90.00000  Step:           4  Bead:       0 forces{atomic_unit}  cell{atomic_unit}
       H -1.89874e-03  4.54842e-03  4.28367e-03
       C  4.27513e-02 -3.10340e-02 -2.88898e-02
       H -1.84981e-02  2.08305e-02  2.04197e-02
       H -1.21187e-02  1.12686e-02 -6.75856e-03
       H -1.02556e-02 -5.61863e-03  1.09405e-02
       H  1.98362e-05  5.13278e-06  4.39399e-06
6
# CELL(abcABC):  200.00000   200.00000   200.00000    90.00000    90.00000    90.00000  Step:           5  Bead:       0 forces{atomic_unit}  cell{atomic_unit}
       H  2.88385e-03  5.97116e-03  5.56747e-03
       C -6.69353e-03 -1.47895e-02 -1.61960e-02
       H -7.95413e-03  8.39385e-03  8.88307e-03
       H  6.28933e-03 -4.94947e-03  6.86954e-03
       H  5.45408e-03  5.36862e-03 -5.12869e-03
       H  2.04044e-05  5.33786e-06  4.56780e-06
6
# CELL(abcABC):  200.00000   200.00000   200.00000    90.00000    90.00000    90.00000  Step:           6  Bead:       0 forces{atomic_unit}  cell{atomic_unit}
       H  2.31611e-04  3.14484e-03  2.95871e-03
       C -2.48781e-03 -5.74700e-03 -5.91740e-03
       H -4.25219e-03  2.38150e-03  3.02100e-03
       H  3.20530e-03 -2.88731e-03  3.63668e-03
       H  3.28282e-03  3.10265e-03 -3.70354e-03
       H  2.02721e-05  5.31814e-06  4.55601e-06
6
# CELL(abcABC):  200.00000   200.00000   200.00000    90.00000    90.00000    90.00000  Step:           7  Bead:       0 forces{atomic_unit}  cell{atomic_unit}
       H  4.22957e-04  1.90103e-03  1.74412e-03
       C  7.02632e-04  4.79951e-04  6.82269e-04
       H -1.07309e-03 -2.15123e-03 -1.43689e-03
       H -3.16004e-04 -4.57033e-04  2.12538e-04
       H  2.43378e-04  2.21984e-04 -1.20658e-03
       H  2.01286e-05  5.29447e-06  4.53845e-06
6
# CELL(abcABC):  200.00000   200.00000   200.00000    90.00000    90.00000    90.00000  Step:           8  Bead:       0 forces{atomic_unit}  cell{atomic_unit}
       H -3.16054e-04  1.27782e-03  1.20703e-03
       C  1.49260e-03  7.77502e-04  5.32943e-04
       H -1.09380e-03 -1.75846e-03 -1.11812e-03
       H -2.20189e-04 -3.86854e-04  2.25697e-04
       H  1.17297e-04  8.46999e-05 -8.52089e-04
       H  2.01468e-05  5.29686e-06  4.54007e-06
6
# CELL(abcABC):  200.00000   200.00000   200.00000    90.00000    90.00000    90.00000  Step:           9  Bead:       0 forces{atomic_unit}  cell{atomic_unit}
       H -9.15556e-04 -6.30888e-05 -1.83861e-05
       C  1.61886e-03  7.78149e-04 -2.47629e-04
       H -6.76554e-04 -2.41616e-04 -3.50022e-06
       H  1.17140e-04 -1.63026e-04  1.11446e-04
       H -1.64116e-04 -3.15729e-04  1.53517e-04
       H  2.02245e-05  5.31098e-06  4.55213e-06
6
# CELL(abcABC):  200.00000   200.00000   200.00000    90.00000    90.00000    90.00000  Step:          10  Bead:       0 forces{atomic_unit}  cell{atomic_unit}
       H -3.59902e-04 -1.30520e-04 -1.40036e-04
       C  4.92522e-04  3.42497e-04 -1.19589e-04
       H -2.75447e-04  8.81470e-05  1.47741e-04
       H  1.58426e-04 -4.96175e-05 -3.72125e-05
       H -3.58503e-05 -2.55824e-04  1.44539e-04
       H  2.02520e-05  5.31719e-06  4.55879e-06
6
# CELL(abcABC):  200.00000   200.00000   200.00000    90.00000    90.00000    90.00000  Step:          11  Bead:       0 forces{atomic_unit}  cell{atomic_unit}
       H -3.75388e-05  3.82314e-06 -4.30646e-05
       C  7.12782e-06  8.28984e-05  3.05299e-05
       H -1.42556e-04  6.70893e-05  8.81576e-05
       H  1.03085e-04  3.57597e-06 -1.01170e-04
       H  4.96274e-05 -1.62705e-04  2.09869e-05
       H  2.02546e-05  5.31795e-06  4.56016e-06
6
# CELL(abcABC):  200.00000   200.00000   200.00000    90.00000    90.00000    90.00000  Step:          12  Bead:       0 forces{atomic_unit}  cell{atomic_unit}
       H  2.79287e-05  4.40112e-05 -6.75032e-06
       C -8.37055e-05  1.66251e-05  6.87006e-05
       H -1.04859e-04  3.57631e-05  5.16686e-05
       H  7.47106e-05  1.80733e-05 -1.02962e-04
       H  6.56717e-05 -1.19790e-04 -1.52174e-05
       H  2.02540e-05  5.31769e-06  4.56011e-06
6
# CELL(abcABC):  200.00000   200.00000   200.00000    90.00000    90.00000    90.00000  Step:          13  Bead:       0 forces{atomic_unit}  cell{atomic_unit}
       H  8.15559e-05  7.84272e-05  3.65292e-05
       C -1.52358e-04 -6.34496e-05  8.44581e-05
       H -3.58611e-05 -1.44144e-05 -6.15659e-06
       H  2.28075e-05  3.69350e-05 -7.73960e-05
       H  6.36033e-05 -4.28151e-05 -4.19943e-05
       H  2.02523e-05  5.31682e-06  4.55955e-06
6
# CELL(abcABC):  200.00000   200.00000   200.00000    90.00000    90.00000    90.00000  Step:          14  Bead:       0 forces{atomic_unit}  cell{atomic_unit}
       H  5.62546e-05  5.93282e-05  3.70342e-05
       C -1.10842e-04 -6.72075e-05  4.34882e-05
       H  4.46804e-06 -3.12228e-05 -2.69543e-05
       H -3.69113e-06  3.67540e-05 -3.67624e-05
       H  3.35594e-05 -2.96791e-06 -2.13646e-05
       H  2.02508e-05  5.31599e-06  4.55879e-06
6
# CELL(abcABC):  200.00000   200.00000   200.00000    90.00000    90.00000    90.00000  Step:          15  Bead:       0 forces{atomic_unit}  cell{atomic_unit}
       H  9.17627e-06  2.38229e-05  1.67175e-05
       C -3.96844e-05 -3.20475e-05 -1.64677e-06
       H  1.05901e-05 -2.21003e-05 -1.86147e-05
       H -5.58109e-06  2.47285e-05 -9.03145e-06
       H  5.24948e-06  2.80947e-07  8.01721e-06
       H  2.02496e-05  5.31546e-06  4.55821e-06
6
# CELL(abcABC):  200.00000   200.00000   200.00000    90.00000    90.00000    90.00000  Step:          16  Bead:       0 forces{atomic_unit}  cell{atomic_unit}
       H -9.53930e-06  7.37242e-06  4.97196e-06
       C -9.55203e-06 -1.10847e-05 -1.50470e-05
       H  4.99173e-06 -1.22478e-05 -8.84351e-06
       H -2.12990e-06  1.53588e-05 -1.77894e-06
       H -4.01917e-06 -4.71386e-06  1.61396e-05
       H  2.02486e-05  5.31518e-06  4.55793e-06
