7
# CELL(abcABC):   25.29166    25.29166    25.29166    90.00000    90.00000    90.00000  Step:           0  Bead:       0 f_centroid{atomic_unit}  cell{atomic_unit}
       O  1.81782e-03  2.94126e-03 -2.50671e-03
       O -9.85165e-04 -3.13301e-03 -2.76220e-03
       H  1.96107e-03  2.46574e-03  5.79977e-03
       H -1.56524e-04  3.14017e-05  1.02516e-03
       H -2.23501e-03  5.02979e-03 -3.90609e-03
       H -3.66372e-03 -2.09913e-03  5.06836e-03
       H  3.26160e-03 -5.23500e-03 -2.71833e-03
7
# CELL(abcABC):   25.29166    25.29166    25.29166    90.00000    90.00000    90.00000  Step:           1  Bead:       0 f_centroid{atomic_unit}  cell{atomic_unit}
       O  7.08337e-03 -4.90473e-04  1.45813e-03
       O -7.19396e-03  5.13627e-04 -8.23604e-04
       H -4.11322e-04  4.21622e-05 -7.00528e-04
       H -9.24288e-05  1.79000e-05  6.14943e-04
       H  3.29653e-04 -6.36363e-04  7.54696e-05
       H  6.11597e-04 -7.27582e-05 -5.40857e-04
       H -3.28093e-04  6.27564e-04 -8.21885e-05
7
# CELL(abcABC):   25.29166    25.29166    25.29166    90.00000    90.00000    90.00000  Step:           2  Bead:       0 f_centroid{atomic_unit}  cell{atomic_unit}
       O  4.22006e-03 -2.45272e-04  7.13956e-04
       O -4.24214e-03  2.45232e-04 -6.33682e-04
       H  1.61830e-04 -1.81883e-04 -3.66147e-04
       H -3.33003e-05  5.37739e-06  2.37208e-04
       H -2.04174e-04 -4.65393e-04  2.24334e-04
       H -3.24519e-05  1.64218e-04 -4.13449e-04
       H  1.32790e-04  4.77478e-04  2.37209e-04
7
# CELL(abcABC):   25.29166    25.29166    25.29166    90.00000    90.00000    90.00000  Step:           3  Bead:       0 f_centroid{atomic_unit}  cell{atomic_unit}
       O -3.72566e-05  1.97733e-04 -8.71367e-05
       O  5.65223e-05 -2.06005e-04 -7.07814e-05
       H  8.47947e-04 -5.39504e-04 -1.16327e-04
       H  5.57336e-05 -1.34605e-05 -3.27650e-04
       H -9.50274e-04 -1.71281e-04  3.72206e-04
       H -7.64345e-04  5.27132e-04 -4.01775e-04
       H  7.91928e-04  2.04447e-04  6.28980e-04
7
# CELL(abcABC):   25.29166    25.29166    25.29166    90.00000    90.00000    90.00000  Step:           4  Bead:       0 f_centroid{atomic_unit}  cell{atomic_unit}
       O -9.97318e-05  1.23228e-04 -1.20147e-04
       O  1.28932e-04 -1.37115e-04 -8.26034e-05
       H  8.06038e-04 -4.82407e-04 -7.23858e-05
       H  5.29724e-05 -1.23549e-05 -3.08664e-04
       H -8.90132e-04 -1.81137e-04  3.44555e-04
       H -7.37055e-04  4.74054e-04 -3.46252e-04
       H  7.40228e-04  2.14571e-04  5.84399e-04
7
# CELL(abcABC):   25.29166    25.29166    25.29166    90.00000    90.00000    90.00000  Step:           5  Bead:       0 f_centroid{atomic_unit}  cell{atomic_unit}
       O -1.49103e-04 -2.24571e-04  2.45360e-04
       O  6.47503e-05  2.53597e-04  2.47269e-04
       H  4.09599e-05  8.54172e-05 -3.16717e-05
       H  9.91633e-06 -2.41300e-06 -4.80938e-05
       H -2.05127e-04  4.32152e-06 -2.26272e-04
       H -3.42197e-05 -8.88761e-05 -2.90441e-05
       H  2.72567e-04 -2.81915e-05 -1.57056e-04
7
# CELL(abcABC):   25.29166    25.29166    25.29166    90.00000    90.00000    90.00000  Step:           6  Bead:       0 f_centroid{atomic_unit}  cell{atomic_unit}
       O -4.81208e-05 -3.12748e-04  1.62947e-04
       O -3.37366e-06  3.17799e-04  1.50132e-04
       H  3.92404e-05  1.14903e-04  2.44654e-05
       H  3.15765e-06  3.26850e-07 -1.49043e-05
       H -1.58019e-04 -4.56140e-05 -1.97689e-04
       H -4.53085e-05 -1.10234e-04  1.69365e-05
       H  2.10865e-04  3.84460e-05 -1.43119e-04
7
# CELL(abcABC):   25.29166    25.29166    25.29166    90.00000    90.00000    90.00000  Step:           7  Bead:       0 f_centroid{atomic_unit}  cell{atomic_unit}
       O  3.46483e-04 -5.06397e-04 -9.58210e-05
       O -2.89630e-04  4.33964e-04 -1.68487e-04
       H -5.08749e-06  1.70111e-04  1.60640e-04
       H -2.34891e-05  6.43468e-06  1.48128e-04
       H  1.45533e-05 -1.76350e-04 -9.36168e-05
       H -2.74852e-05 -1.49623e-04  1.37034e-04
       H -1.50479e-05  2.20690e-04 -8.67104e-05
7
# CELL(abcABC):   25.29166    25.29166    25.29166    90.00000    90.00000    90.00000  Step:           8  Bead:       0 f_centroid{atomic_unit}  cell{atomic_unit}
       O  4.07454e-04 -4.14485e-04 -2.08129e-04
       O -3.05207e-04  3.37566e-04 -2.87793e-04
       H -4.01855e-05  1.24338e-04  1.59262e-04
       H -4.27463e-05  6.97611e-06  2.49726e-04
       H  7.32044e-05 -1.81399e-04 -2.11159e-05
       H  1.87299e-06 -1.02843e-04  1.45599e-04
       H -9.64249e-05  2.27749e-04 -3.71003e-05
7
# CELL(abcABC):   25.29166    25.29166    25.29166    90.00000    90.00000    90.00000  Step:           9  Bead:       0 f_centroid{atomic_unit}  cell{atomic_unit}
       O  1.94034e-04 -1.57098e-04 -1.43839e-04
       O -1.27939e-04  1.18337e-04 -1.74995e-04
       H -4.61228e-05  1.95271e-05  5.02325e-05
       H -4.18666e-05  7.18785e-06  2.36844e-04
       H  2.58652e-05 -8.81840e-05 -7.19780e-06
       H  3.42183e-05 -9.37206e-06  4.87987e-05
       H -3.85143e-05  1.07879e-04 -1.14881e-05
7
# CELL(abcABC):   25.29166    25.29166    25.29166    90.00000    90.00000    90.00000  Step:          10  Bead:       0 f_centroid{atomic_unit}  cell{atomic_unit}
       O  2.35346e-05 -1.04862e-05 -5.71276e-05
       O  1.43530e-07  7.17790e-06 -5.38904e-05
       H -3.23539e-05 -3.32761e-05 -2.02704e-05
       H -3.01668e-05  4.06004e-06  1.76949e-04
       H -2.60911e-05 -2.24460e-05 -2.02306e-05
       H  3.70363e-05  3.42624e-05 -1.55367e-05
       H  2.88992e-05  2.26379e-05 -1.26533e-05
