7
# CELL(abcABC):   25.29166    25.29166    25.29166    90.00000    90.00000    90.00000  Step:           0  Bead:       0 x_centroid{atomic_unit}  cell{atomic_unit}
       O  1.02130e+00 -1.84220e+00 -4.09276e-01
       O  5.52715e+00 -1.58596e+00  2.87988e-01
       H  3.47444e-01 -2.37735e+00 -2.03854e+00
       H  3.29434e+00 -1.71829e+00 -1.89719e-01
       H  6.23055e+00 -3.01079e+00  1.22313e+00
       H  6.67136e+00 -1.14921e+00 -1.08863e+00
       H  7.99951e-02 -3.68232e-01  1.74386e-01
7
# CELL(abcABC):   25.29166    25.29166    25.29166    90.00000    90.00000    90.00000  Step:           1  Bead:       0 x_centroid{atomic_unit}  cell{atomic_unit}
       O  1.02498e+00 -1.83625e+00 -4.14345e-01
       O  5.52516e+00 -1.59229e+00  2.82403e-01
       H  3.51409e-01 -2.37237e+00 -2.02682e+00
       H  3.29402e+00 -1.71822e+00 -1.87646e-01
       H  6.22604e+00 -3.00062e+00  1.21523e+00
       H  6.66395e+00 -1.15346e+00 -1.07838e+00
       H  8.65897e-02 -3.78816e-01  1.68890e-01
7
# CELL(abcABC):   25.29166    25.29166    25.29166    90.00000    90.00000    90.00000  Step:           2  Bead:       0 x_centroid{atomic_unit}  cell{atomic_unit}
       O  1.03288e+00 -1.83532e+00 -4.14111e-01
       O  5.51755e+00 -1.59330e+00  2.80250e-01
       H  3.51950e-01 -2.37113e+00 -2.02471e+00
       H  3.29385e+00 -1.71819e+00 -1.86540e-01
       H  6.22528e+00 -2.99882e+00  1.21342e+00
       H  6.66278e+00 -1.15455e+00 -1.07647e+00
       H  8.78422e-02 -3.80727e-01  1.67493e-01
7
# CELL(abcABC):   25.29166    25.29166    25.29166    90.00000    90.00000    90.00000  Step:           3  Bead:       0 x_centroid{atomic_unit}  cell{atomic_unit}
       O  1.04500e+00 -1.83375e+00 -4.14149e-01
       O  5.50599e+00 -1.59501e+00  2.76586e-01
       H  3.53789e-01 -2.36974e+00 -2.02131e+00
       H  3.29365e+00 -1.71815e+00 -1.85158e-01
       H  6.22313e+00 -2.99624e+00  1.21106e+00
       H  6.66000e+00 -1.15571e+00 -1.07373e+00
       H  9.05853e-02 -3.83429e-01  1.66041e-01
7
# CELL(abcABC):   25.29166    25.29166    25.29166    90.00000    90.00000    90.00000  Step:           4  Bead:       0 x_centroid{atomic_unit}  cell{atomic_unit}
       O  1.04561e+00 -1.83349e+00 -4.14205e-01
       O  5.50542e+00 -1.59528e+00  2.76348e-01
       H  3.54705e-01 -2.37022e+00 -2.02130e+00
       H  3.29369e+00 -1.71816e+00 -1.85415e-01
       H  6.22209e+00 -2.99631e+00  1.21133e+00
       H  6.65913e+00 -1.15524e+00 -1.07403e+00
       H  9.14878e-02 -3.83328e-01  1.66605e-01
7
# CELL(abcABC):   25.29166    25.29166    25.29166    90.00000    90.00000    90.00000  Step:           5  Bead:       0 x_centroid{atomic_unit}  cell{atomic_unit}
       O  1.05051e+00 -1.83157e+00 -4.15145e-01
       O  5.50100e+00 -1.59740e+00  2.73976e-01
       H  3.65125e-01 -2.37581e+00 -2.02147e+00
       H  3.29426e+00 -1.71830e+00 -1.88627e-01
       H  6.21048e+00 -2.99797e+00  1.21492e+00
       H  6.64937e+00 -1.14970e+00 -1.07773e+00
       H  1.01424e-01 -3.81302e-01  1.73402e-01
7
# CELL(abcABC):   25.29166    25.29166    25.29166    90.00000    90.00000    90.00000  Step:           6  Bead:       0 x_centroid{atomic_unit}  cell{atomic_unit}
       O  1.05031e+00 -1.83179e+00 -4.14894e-01
       O  5.50111e+00 -1.59715e+00  2.74243e-01
       H  3.65311e-01 -2.37585e+00 -2.02158e+00
       H  3.29428e+00 -1.71831e+00 -1.88751e-01
       H  6.21011e+00 -2.99805e+00  1.21480e+00
       H  6.64922e+00 -1.14967e+00 -1.07789e+00
       H  1.01819e-01 -3.81239e-01  1.73392e-01
7
# CELL(abcABC):   25.29166    25.29166    25.29166    90.00000    90.00000    90.00000  Step:           7  Bead:       0 x_centroid{atomic_unit}  cell{atomic_unit}
       O  1.04944e+00 -1.83425e+00 -4.13023e-01
       O  5.50134e+00 -1.59455e+00  2.76046e-01
       H  3.66726e-01 -2.37566e+00 -2.02193e+00
       H  3.29441e+00 -1.71833e+00 -1.89479e-01
       H  6.20726e+00 -2.99868e+00  1.21342e+00
       H  6.64797e+00 -1.14987e+00 -1.07861e+00
       H  1.04989e-01 -3.80693e-01  1.72887e-01
7
# CELL(abcABC):   25.29166    25.29166    25.29166    90.00000    90.00000    90.00000  Step:           8  Bead:       0 x_centroid{atomic_unit}  cell{atomic_unit}
       O  1.04927e+00 -1.83740e+00 -4.10973e-01
       O  5.50088e+00 -1.59130e+00  2.77809e-01
       H  3.68227e-01 -2.37507e+00 -2.02193e+00
       H  3.29452e+00 -1.71835e+00 -1.89985e-01
       H  6.20409e+00 -2.99928e+00  1.21147e+00
       H  6.64654e+00 -1.15045e+00 -1.07903e+00
       H  1.08614e-01 -3.80175e-01  1.71946e-01
7
# CELL(abcABC):   25.29166    25.29166    25.29166    90.00000    90.00000    90.00000  Step:           9  Bead:       0 x_centroid{atomic_unit}  cell{atomic_unit}
       O  1.04970e+00 -1.83955e+00 -4.09819e-01
       O  5.50014e+00 -1.58914e+00  2.78646e-01
       H  3.69017e-01 -2.37447e+00 -2.02167e+00
       H  3.29453e+00 -1.71836e+00 -1.89945e-01
       H  6.20221e+00 -2.99956e+00  1.20999e+00
       H  6.64571e+00 -1.15103e+00 -1.07899e+00
       H  1.10837e-01 -3.79942e-01  1.71098e-01
7
# CELL(abcABC):   25.29166    25.29166    25.29166    90.00000    90.00000    90.00000  Step:          10  Bead:       0 x_centroid{atomic_unit}  cell{atomic_unit}
       O  1.05004e+00 -1.83994e+00 -4.09769e-01
       O  5.49981e+00 -1.58878e+00  2.78586e-01
       H  3.69000e-01 -2.37428e+00 -2.02152e+00
       H  3.29447e+00 -1.71835e+00 -1.89603e-01
       H  6.20201e+00 -2.99956e+00  1.20963e+00
       H  6.64568e+00 -1.15120e+00 -1.07883e+00
       H  1.11127e-01 -3.79952e-01  1.70824e-01
7
# CELL(abcABC):   25.29166    25.29166    25.29166    90.00000    90.00000    90.00000  Step:          11  Bead:       0 x_centroid{atomic_unit}  cell{atomic_unit}
       O  1.05018e+00 -1.83995e+00 -4.09881e-01
       O  5.49973e+00 -1.58877e+00  2.78454e-01
       H  3.68905e-01 -2.37428e+00 -2.02150e+00
       H  3.29441e+00 -1.71835e+00 -1.89268e-01
       H  6.20201e+00 -2.99955e+00  1.20955e+00
       H  6.64577e+00 -1.15119e+00 -1.07879e+00
       H  1.11139e-01 -3.79958e-01  1.70749e-01
7
# CELL(abcABC):   25.29166    25.29166    25.29166    90.00000    90.00000    90.00000  Step:          12  Bead:       0 x_centroid{atomic_unit}  cell{atomic_unit}
       O  1.05024e+00 -1.83993e+00 -4.10035e-01
       O  5.49973e+00 -1.58879e+00  2.78303e-01
       H  3.68780e-01 -2.37437e+00 -2.02155e+00
       H  3.29431e+00 -1.71833e+00 -1.88715e-01
       H  6.20197e+00 -2.99958e+00  1.20945e+00
       H  6.64590e+00 -1.15110e+00 -1.07881e+00
       H  1.11214e-01 -3.79937e-01  1.70665e-01
7
# CELL(abcABC):   25.29166    25.29166    25.29166    90.00000    90.00000    90.00000  Step:          13  Bead:       0 x_centroid{atomic_unit}  cell{atomic_unit}
       O  1.05018e+00 -1.83999e+00 -4.10096e-01
       O  5.49982e+00 -1.58873e+00  2.78271e-01
       H  3.68731e-01 -2.37449e+00 -2.02165e+00
       H  3.29423e+00 -1.71832e+00 -1.88209e-01
       H  6.20180e+00 -2.99966e+00  1.20932e+00
       H  6.64597e+00 -1.15098e+00 -1.07890e+00
       H  1.11418e-01 -3.79867e-01  1.70578e-01
7
# CELL(abcABC):   25.29166    25.29166    25.29166    90.00000    90.00000    90.00000  Step:          14  Bead:       0 x_centroid{atomic_unit}  cell{atomic_unit}
       O  1.05010e+00 -1.84004e+00 -4.10067e-01
       O  5.49989e+00 -1.58867e+00  2.78325e-01
       H  3.68784e-01 -2.37459e+00 -2.02171e+00
       H  3.29419e+00 -1.71831e+00 -1.88012e-01
       H  6.20165e+00 -2.99974e+00  1.20922e+00
       H  6.64594e+00 -1.15089e+00 -1.07898e+00
       H  1.11595e-01 -3.79800e-01  1.70530e-01
7
# CELL(abcABC):   25.29166    25.29166    25.29166    90.00000    90.00000    90.00000  Step:          15  Bead:       0 x_centroid{atomic_unit}  cell{atomic_unit}
       O  1.05005e+00 -1.84006e+00 -4.10019e-01
       O  5.49992e+00 -1.58864e+00  2.78380e-01
       H  3.68839e-01 -2.37463e+00 -2.02172e+00
       H  3.29418e+00 -1.71831e+00 -1.87991e-01
       H  6.20161e+00 -2.99979e+00  1.20917e+00
       H  6.64589e+00 -1.15085e+00 -1.07900e+00
       H  1.11657e-01 -3.79757e-01  1.70491e-01
7
# CELL(abcABC):   25.29166    25.29166    25.29166    90.00000    90.00000    90.00000  Step:          16  Bead:       0 x_centroid{atomic_unit}  cell{atomic_unit}
       O  1.04999e+00 -1.84008e+00 -4.09930e-01
       O  5.49994e+00 -1.58860e+00  2.78483e-01
       H  3.68966e-01 -2.37472e+00 -2.02171e+00
       H  3.29417e+00 -1.71831e+00 -1.87938e-01
       H  6.20156e+00 -2.99990e+00  1.20904e+00
       H  6.64577e+00 -1.15075e+00 -1.07903e+00
       H  1.11756e-01 -3.79648e-01  1.70384e-01
7
# CELL(abcABC):   25.29166    25.29166    25.29166    90.00000    90.00000    90.00000  Step:          17  Bead:       0 x_centroid{atomic_unit}  cell{atomic_unit}
       O  1.04988e+00 -1.84002e+00 -4.09809e-01
       O  5.49999e+00 -1.58864e+00  2.78643e-01
       H  3.69153e-01 -2.37492e+00 -2.02165e+00
       H  3.29414e+00 -1.71830e+00 -1.87824e-01
       H  6.20166e+00 -3.00013e+00  1.20881e+00
       H  6.64558e+00 -1.15057e+00 -1.07902e+00
       H  1.11751e-01 -3.79437e-01  1.70138e-01
7
# CELL(abcABC):   25.29166    25.29166    25.29166    90.00000    90.00000    90.00000  Step:          18  Bead:       0 x_centroid{atomic_unit}  cell{atomic_unit}
       O  1.04969e+00 -1.83987e+00 -4.09443e-01
       O  5.50005e+00 -1.58873e+00  2.79090e-01
       H  3.69750e-01 -2.37555e+00 -2.02142e+00
       H  3.29401e+00 -1.71827e+00 -1.87277e-01
       H  6.20194e+00 -3.00087e+00  1.20798e+00
       H  6.64495e+00 -1.14996e+00 -1.07895e+00
       H  1.11792e-01 -3.78743e-01  1.69264e-01
7
# CELL(abcABC):   25.29166    25.29166    25.29166    90.00000    90.00000    90.00000  Step:          19  Bead:       0 x_centroid{atomic_unit}  cell{atomic_unit}
       O  1.04952e+00 -1.83956e+00 -4.08996e-01
       O  5.50005e+00 -1.58897e+00  2.79650e-01
       H  3.70549e-01 -2.37645e+00 -2.02100e+00
       H  3.29381e+00 -1.71823e+00 -1.86407e-01
       H  6.20253e+00 -3.00194e+00  1.20679e+00
       H  6.64409e+00 -1.14906e+00 -1.07877e+00
       H  1.11672e-01 -3.77728e-01  1.67937e-01
7
# CELL(abcABC):   25.29166    25.29166    25.29166    90.00000    90.00000    90.00000  Step:          20  Bead:       0 x_centroid{atomic_unit}  cell{atomic_unit}
       O  1.04932e+00 -1.83872e+00 -4.08184e-01
       O  5.49998e+00 -1.58967e+00  2.80667e-01
       H  3.72144e-01 -2.37842e+00 -2.01999e+00
       H  3.29333e+00 -1.71814e+00 -1.84334e-01
       H  6.20404e+00 -3.00426e+00  1.20421e+00
       H  6.64232e+00 -1.14706e+00 -1.07827e+00
       H  1.11178e-01 -3.75551e-01  1.64989e-01
7
# CELL(abcABC):   25.29166    25.29166    25.29166    90.00000    90.00000    90.00000  Step:          21  Bead:       0 x_centroid{atomic_unit}  cell{atomic_unit}
       O  1.04941e+00 -1.83840e+00 -4.07990e-01
       O  5.49987e+00 -1.58999e+00  2.80899e-01
       H  3.72600e-01 -2.37908e+00 -2.01955e+00
       H  3.29315e+00 -1.71811e+00 -1.83512e-01
       H  6.20464e+00 -3.00504e+00  1.20331e+00
       H  6.64178e+00 -1.14636e+00 -1.07801e+00
       H  1.10909e-01 -3.74820e-01  1.63905e-01
7
# CELL(abcABC):   25.29166    25.29166    25.29166    90.00000    90.00000    90.00000  Step:          22  Bead:       0 x_centroid{atomic_unit}  cell{atomic_unit}
       O  1.04955e+00 -1.83826e+00 -4.08038e-01
       O  5.49979e+00 -1.59015e+00  2.80818e-01
       H  3.72575e-01 -2.37922e+00 -2.01937e+00
       H  3.29309e+00 -1.71811e+00 -1.83241e-01
       H  6.20486e+00 -3.00521e+00  1.20313e+00
       H  6.64175e+00 -1.14616e+00 -1.07787e+00
       H  1.10740e-01 -3.74678e-01  1.63616e-01
7
# CELL(abcABC):   25.29166    25.29166    25.29166    90.00000    90.00000    90.00000  Step:          23  Bead:       0 x_centroid{atomic_unit}  cell{atomic_unit}
       O  1.04960e+00 -1.83828e+00 -4.08082e-01
       O  5.49978e+00 -1.59015e+00  2.80744e-01
       H  3.72462e-01 -2.37916e+00 -2.01936e+00
       H  3.29311e+00 -1.71812e+00 -1.83297e-01
       H  6.20481e+00 -3.00515e+00  1.20321e+00
       H  6.64186e+00 -1.14618e+00 -1.07785e+00
       H  1.10749e-01 -3.74747e-01  1.63679e-01
7
# CELL(abcABC):   25.29166    25.29166    25.29166    90.00000    90.00000    90.00000  Step:          24  Bead:       0 x_centroid{atomic_unit}  cell{atomic_unit}
       O  1.04971e+00 -1.83843e+00 -4.08245e-01
       O  5.49978e+00 -1.59009e+00  2.80448e-01
       H  3.71947e-01 -2.37885e+00 -2.01940e+00
       H  3.29323e+00 -1.71817e+00 -1.83715e-01
       H  6.20447e+00 -3.00480e+00  1.20368e+00
       H  6.64236e+00 -1.14636e+00 -1.07782e+00
       H  1.10844e-01 -3.75108e-01  1.64107e-01
7
# CELL(abcABC):   25.29166    25.29166    25.29166    90.00000    90.00000    90.00000  Step:          25  Bead:       0 x_centroid{atomic_unit}  cell{atomic_unit}
       O  1.04972e+00 -1.83840e+00 -4.08167e-01
       O  5.49978e+00 -1.59018e+00  2.80459e-01
       H  3.71891e-01 -2.37907e+00 -2.01919e+00
       H  3.29325e+00 -1.71819e+00 -1.83663e-01
       H  6.20446e+00 -3.00505e+00  1.20348e+00
       H  6.64236e+00 -1.14603e+00 -1.07767e+00
       H  1.10882e-01 -3.74900e-01  1.63804e-01
7
# CELL(abcABC):   25.29166    25.29166    25.29166    90.00000    90.00000    90.00000  Step:          26  Bead:       0 x_centroid{atomic_unit}  cell{atomic_unit}
       O  1.04965e+00 -1.83792e+00 -4.07416e-01
       O  5.49975e+00 -1.59099e+00  2.80786e-01
       H  3.71855e-01 -2.38101e+00 -2.01760e+00
       H  3.29332e+00 -1.71834e+00 -1.83108e-01
       H  6.20466e+00 -3.00719e+00  1.20161e+00
       H  6.64201e+00 -1.14335e+00 -1.07652e+00
       H  1.11072e-01 -3.73003e-01  1.61213e-01
7
# CELL(abcABC):   25.29166    25.29166    25.29166    90.00000    90.00000    90.00000  Step:          27  Bead:       0 x_centroid{atomic_unit}  cell{atomic_unit}
       O  1.04949e+00 -1.83781e+00 -4.07088e-01
       O  5.49978e+00 -1.59124e+00  2.80951e-01
       H  3.71689e-01 -2.38183e+00 -2.01695e+00
       H  3.29342e+00 -1.71841e+00 -1.83054e-01
       H  6.20468e+00 -3.00804e+00  1.20081e+00
       H  6.64203e+00 -1.14228e+00 -1.07595e+00
       H  1.11237e-01 -3.72205e-01  1.60211e-01
7
# CELL(abcABC):   25.29166    25.29166    25.29166    90.00000    90.00000    90.00000  Step:          28  Bead:       0 x_centroid{atomic_unit}  cell{atomic_unit}
       O  1.04914e+00 -1.83768e+00 -4.06530e-01
       O  5.49975e+00 -1.59165e+00  2.81165e-01
       H  3.71160e-01 -2.38342e+00 -2.01577e+00
       H  3.29373e+00 -1.71852e+00 -1.83287e-01
       H  6.20449e+00 -3.00950e+00  1.19942e+00
       H  6.64228e+00 -1.14033e+00 -1.07474e+00
       H  1.11770e-01 -3.70749e-01  1.58606e-01
7
# CELL(abcABC):   25.29166    25.29166    25.29166    90.00000    90.00000    90.00000  Step:          29  Bead:       0 x_centroid{atomic_unit}  cell{atomic_unit}
       O  1.04896e+00 -1.83760e+00 -4.06394e-01
       O  5.49965e+00 -1.59182e+00  2.81205e-01
       H  3.70814e-01 -2.38417e+00 -2.01532e+00
       H  3.29390e+00 -1.71854e+00 -1.83503e-01
       H  6.20443e+00 -3.01002e+00  1.19882e+00
       H  6.64251e+00 -1.13959e+00 -1.07409e+00
       H  1.12048e-01 -3.70142e-01  1.58110e-01
7
# CELL(abcABC):   25.29166    25.29166    25.29166    90.00000    90.00000    90.00000  Step:          30  Bead:       0 x_centroid{atomic_unit}  cell{atomic_unit}
       O  1.04872e+00 -1.83725e+00 -4.06160e-01
       O  5.49934e+00 -1.59228e+00  2.81312e-01
       H  3.70176e-01 -2.38604e+00 -2.01421e+00
       H  3.29416e+00 -1.71856e+00 -1.83694e-01
       H  6.20445e+00 -3.01133e+00  1.19731e+00
       H  6.64286e+00 -1.13782e+00 -1.07262e+00
       H  1.12598e-01 -3.68639e-01  1.56831e-01
7
# CELL(abcABC):   25.29166    25.29166    25.29166    90.00000    90.00000    90.00000  Step:          31  Bead:       0 x_centroid{atomic_unit}  cell{atomic_unit}
       O  1.04879e+00 -1.83715e+00 -4.06317e-01
       O  5.49927e+00 -1.59229e+00  2.81272e-01
       H  3.70035e-01 -2.38614e+00 -2.01420e+00
       H  3.29412e+00 -1.71853e+00 -1.83701e-01
       H  6.20453e+00 -3.01127e+00  1.19727e+00
       H  6.64296e+00 -1.13787e+00 -1.07249e+00
       H  1.12598e-01 -3.68652e-01  1.56934e-01
7
# CELL(abcABC):   25.29166    25.29166    25.29166    90.00000    90.00000    90.00000  Step:          32  Bead:       0 x_centroid{atomic_unit}  cell{atomic_unit}
       O  1.04899e+00 -1.83705e+00 -4.06630e-01
       O  5.49921e+00 -1.59222e+00  2.81198e-01
       H  3.69691e-01 -2.38615e+00 -2.01421e+00
       H  3.29402e+00 -1.71850e+00 -1.83890e-01
       H  6.20454e+00 -3.01108e+00  1.19739e+00
       H  6.64322e+00 -1.13808e+00 -1.07236e+00
       H  1.12643e-01 -3.68837e-01  1.57270e-01
7
# CELL(abcABC):   25.29166    25.29166    25.29166    90.00000    90.00000    90.00000  Step:          33  Bead:       0 x_centroid{atomic_unit}  cell{atomic_unit}
       O  1.04911e+00 -1.83680e+00 -4.06663e-01
       O  5.49916e+00 -1.59233e+00  2.81362e-01
       H  3.69396e-01 -2.38694e+00 -2.01369e+00
       H  3.29389e+00 -1.71849e+00 -1.83887e-01
       H  6.20460e+00 -3.01170e+00  1.19674e+00
       H  6.64328e+00 -1.13737e+00 -1.07182e+00
       H  1.12857e-01 -3.68289e-01  1.56704e-01
7
# CELL(abcABC):   25.29166    25.29166    25.29166    90.00000    90.00000    90.00000  Step:          34  Bead:       0 x_centroid{atomic_unit}  cell{atomic_unit}
       O  1.04927e+00 -1.83626e+00 -4.06540e-01
       O  5.49920e+00 -1.59256e+00  2.81965e-01
       H  3.69106e-01 -2.38871e+00 -2.01256e+00
       H  3.29353e+00 -1.71847e+00 -1.83619e-01
       H  6.20488e+00 -3.01329e+00  1.19510e+00
       H  6.64306e+00 -1.13570e+00 -1.07081e+00
       H  1.13260e-01 -3.66921e-01  1.55129e-01
7
# CELL(abcABC):   25.29166    25.29166    25.29166    90.00000    90.00000    90.00000  Step:          35  Bead:       0 x_centroid{atomic_unit}  cell{atomic_unit}
       O  1.04931e+00 -1.83617e+00 -4.06560e-01
       O  5.49931e+00 -1.59249e+00  2.82180e-01
       H  3.68854e-01 -2.38908e+00 -2.01231e+00
       H  3.29341e+00 -1.71847e+00 -1.83832e-01
       H  6.20483e+00 -3.01359e+00  1.19482e+00
       H  6.64314e+00 -1.13540e+00 -1.07056e+00
       H  1.13457e-01 -3.66720e-01  1.54912e-01
7
# CELL(abcABC):   25.29166    25.29166    25.29166    90.00000    90.00000    90.00000  Step:          36  Bead:       0 x_centroid{atomic_unit}  cell{atomic_unit}
       O  1.04930e+00 -1.83617e+00 -4.06583e-01
       O  5.49943e+00 -1.59240e+00  2.82300e-01
       H  3.68701e-01 -2.38915e+00 -2.01226e+00
       H  3.29336e+00 -1.71846e+00 -1.84107e-01
       H  6.20474e+00 -3.01365e+00  1.19484e+00
       H  6.64321e+00 -1.13537e+00 -1.07053e+00
       H  1.13571e-01 -3.66736e-01  1.54976e-01
7
# CELL(abcABC):   25.29166    25.29166    25.29166    90.00000    90.00000    90.00000  Step:          37  Bead:       0 x_centroid{atomic_unit}  cell{atomic_unit}
       O  1.04930e+00 -1.83623e+00 -4.06626e-01
       O  5.49944e+00 -1.59236e+00  2.82234e-01
       H  3.68687e-01 -2.38894e+00 -2.01240e+00
       H  3.29339e+00 -1.71845e+00 -1.84200e-01
       H  6.20468e+00 -3.01344e+00  1.19507e+00
       H  6.64326e+00 -1.13559e+00 -1.07064e+00
       H  1.13546e-01 -3.66929e-01  1.55219e-01
7
# CELL(abcABC):   25.29166    25.29166    25.29166    90.00000    90.00000    90.00000  Step:          38  Bead:       0 x_centroid{atomic_unit}  cell{atomic_unit}
       O  1.04930e+00 -1.83623e+00 -4.06627e-01
       O  5.49944e+00 -1.59235e+00  2.82231e-01
       H  3.68687e-01 -2.38893e+00 -2.01241e+00
       H  3.29339e+00 -1.71845e+00 -1.84203e-01
       H  6.20468e+00 -3.01343e+00  1.19508e+00
       H  6.64326e+00 -1.13560e+00 -1.07064e+00
       H  1.13546e-01 -3.66935e-01  1.55227e-01
7
# CELL(abcABC):   25.29166    25.29166    25.29166    90.00000    90.00000    90.00000  Step:          39  Bead:       0 x_centroid{atomic_unit}  cell{atomic_unit}
       O  1.04929e+00 -1.83624e+00 -4.06621e-01
       O  5.49943e+00 -1.59236e+00  2.82226e-01
       H  3.68674e-01 -2.38896e+00 -2.01239e+00
       H  3.29340e+00 -1.71844e+00 -1.84205e-01
       H  6.20467e+00 -3.01345e+00  1.19506e+00
       H  6.64327e+00 -1.13558e+00 -1.07062e+00
       H  1.13559e-01 -3.66915e-01  1.55211e-01
7
# CELL(abcABC):   25.29166    25.29166    25.29166    90.00000    90.00000    90.00000  Step:          40  Bead:       0 x_centroid{atomic_unit}  cell{atomic_unit}
       O  1.04929e+00 -1.83624e+00 -4.06611e-01
       O  5.49942e+00 -1.59237e+00  2.82214e-01
       H  3.68713e-01 -2.38894e+00 -2.01242e+00
       H  3.29341e+00 -1.71841e+00 -1.84154e-01
       H  6.20470e+00 -3.01345e+00  1.19506e+00
       H  6.64325e+00 -1.13559e+00 -1.07065e+00
       H  1.13531e-01 -3.66915e-01  1.55200e-01
7
# CELL(abcABC):   25.29166    25.29166    25.29166    90.00000    90.00000    90.00000  Step:          41  Bead:       0 x_centroid{atomic_unit}  cell{atomic_unit}
       O  1.04929e+00 -1.83625e+00 -4.06604e-01
       O  5.49943e+00 -1.59236e+00  2.82235e-01
       H  3.68755e-01 -2.38894e+00 -2.01243e+00
       H  3.29339e+00 -1.71838e+00 -1.84119e-01
       H  6.20470e+00 -3.01346e+00  1.19505e+00
       H  6.64321e+00 -1.13561e+00 -1.07067e+00
       H  1.13532e-01 -3.66918e-01  1.55188e-01
7
# CELL(abcABC):   25.29166    25.29166    25.29166    90.00000    90.00000    90.00000  Step:          42  Bead:       0 x_centroid{atomic_unit}  cell{atomic_unit}
       O  1.04930e+00 -1.83625e+00 -4.06610e-01
       O  5.49944e+00 -1.59236e+00  2.82250e-01
       H  3.68775e-01 -2.38892e+00 -2.01244e+00
       H  3.29337e+00 -1.71837e+00 -1.84112e-01
       H  6.20471e+00 -3.01345e+00  1.19506e+00
       H  6.64319e+00 -1.13564e+00 -1.07070e+00
       H  1.13521e-01 -3.66939e-01  1.55198e-01
7
# CELL(abcABC):   25.29166    25.29166    25.29166    90.00000    90.00000    90.00000  Step:          43  Bead:       0 x_centroid{atomic_unit}  cell{atomic_unit}
       O  1.04930e+00 -1.83623e+00 -4.06615e-01
       O  5.49945e+00 -1.59237e+00  2.82243e-01
       H  3.68744e-01 -2.38892e+00 -2.01242e+00
       H  3.29338e+00 -1.71838e+00 -1.84151e-01
       H  6.20471e+00 -3.01345e+00  1.19508e+00
       H  6.64322e+00 -1.13563e+00 -1.07068e+00
       H  1.13512e-01 -3.66950e-01  1.55204e-01
7
# CELL(abcABC):   25.29166    25.29166    25.29166    90.00000    90.00000    90.00000  Step:          44  Bead:       0 x_centroid{atomic_unit}  cell{atomic_unit}
       O  1.04930e+00 -1.83623e+00 -4.06614e-01
       O  5.49944e+00 -1.59237e+00  2.82237e-01
       H  3.68751e-01 -2.38892e+00 -2.01243e+00
       H  3.29338e+00 -1.71837e+00 -1.84144e-01
       H  6.20471e+00 -3.01345e+00  1.19508e+00
       H  6.64321e+00 -1.13563e+00 -1.07069e+00
       H  1.13508e-01 -3.66948e-01  1.55205e-01
7
# CELL(abcABC):   25.29166    25.29166    25.29166    90.00000    90.00000    90.00000  Step:          45  Bead:       0 x_centroid{atomic_unit}  cell{atomic_unit}
       O  1.04930e+00 -1.83624e+00 -4.06611e-01
       O  5.49944e+00 -1.59237e+00  2.82233e-01
       H  3.68753e-01 -2.38892e+00 -2.01243e+00
       H  3.29339e+00 -1.71837e+00 -1.84138e-01
       H  6.20471e+00 -3.01345e+00  1.19507e+00
       H  6.64322e+00 -1.13563e+00 -1.07068e+00
       H  1.13507e-01 -3.66944e-01  1.55202e-01
7
# CELL(abcABC):   25.29166    25.29166    25.29166    90.00000    90.00000    90.00000  Step:          46  Bead:       0 x_centroid{atomic_unit}  cell{atomic_unit}
       O  1.04930e+00 -1.83623e+00 -4.06612e-01
       O  5.49943e+00 -1.59237e+00  2.82228e-01
       H  3.68744e-01 -2.38894e+00 -2.01242e+00
       H  3.29339e+00 -1.71837e+00 -1.84152e-01
       H  6.20470e+00 -3.01346e+00  1.19507e+00
       H  6.64322e+00 -1.13561e+00 -1.07067e+00
       H  1.13516e-01 -3.66935e-01  1.55200e-01
7
# CELL(abcABC):   25.29166    25.29166    25.29166    90.00000    90.00000    90.00000  Step:          47  Bead:       0 x_centroid{atomic_unit}  cell{atomic_unit}
       O  1.04930e+00 -1.83623e+00 -4.06612e-01
       O  5.49943e+00 -1.59237e+00  2.82226e-01
       H  3.68739e-01 -2.38895e+00 -2.01241e+00
       H  3.29339e+00 -1.71837e+00 -1.84157e-01
       H  6.20469e+00 -3.01346e+00  1.19506e+00
       H  6.64323e+00 -1.13561e+00 -1.07066e+00
       H  1.13520e-01 -3.66931e-01  1.55200e-01
7
# CELL(abcABC):   25.29166    25.29166    25.29166    90.00000    90.00000    90.00000  Step:          48  Bead:       0 x_centroid{atomic_unit}  cell{atomic_unit}
       O  1.04930e+00 -1.83623e+00 -4.06612e-01
       O  5.49943e+00 -1.59237e+00  2.82226e-01
       H  3.68739e-01 -2.38895e+00 -2.01241e+00
       H  3.29339e+00 -1.71837e+00 -1.84157e-01
       H  6.20469e+00 -3.01346e+00  1.19506e+00
       H  6.64323e+00 -1.13561e+00 -1.07066e+00
       H  1.13520e-01 -3.66931e-01  1.55200e-01
