7
# CELL(abcABC):   25.29166    25.29166    25.29166    90.00000    90.00000    90.00000  Step:           0  Bead:       0 x_centroid{atomic_unit}  cell{atomic_unit}
       O  1.02130e+00 -1.84220e+00 -4.09276e-01
       O  5.52715e+00 -1.58596e+00  2.87988e-01
       H  3.47444e-01 -2.37735e+00 -2.03854e+00
       H  3.29434e+00 -1.71829e+00 -1.89719e-01
       H  6.23055e+00 -3.01079e+00  1.22313e+00
       H  6.67136e+00 -1.14921e+00 -1.08863e+00
       H  7.99951e-02 -3.68232e-01  1.74386e-01
7
# CELL(abcABC):   25.29166    25.29166    25.29166    90.00000    90.00000    90.00000  Step:           1  Bead:       0 x_centroid{atomic_unit}  cell{atomic_unit}
       O  1.02498e+00 -1.83625e+00 -4.14345e-01
       O  5.52516e+00 -1.59229e+00  2.82403e-01
       H  3.51409e-01 -2.37237e+00 -2.02682e+00
       H  3.29402e+00 -1.71822e+00 -1.87646e-01
       H  6.22604e+00 -3.00062e+00  1.21523e+00
       H  6.66395e+00 -1.15346e+00 -1.07838e+00
       H  8.65897e-02 -3.78816e-01  1.68890e-01
7
# CELL(abcABC):   25.29166    25.29166    25.29166    90.00000    90.00000    90.00000  Step:           2  Bead:       0 x_centroid{atomic_unit}  cell{atomic_unit}
       O  1.03288e+00 -1.83532e+00 -4.14111e-01
       O  5.51755e+00 -1.59330e+00  2.80250e-01
       H  3.51950e-01 -2.37113e+00 -2.02471e+00
       H  3.29385e+00 -1.71819e+00 -1.86540e-01
       H  6.22528e+00 -2.99882e+00  1.21342e+00
       H  6.66278e+00 -1.15455e+00 -1.07647e+00
       H  8.78422e-02 -3.80727e-01  1.67493e-01
7
# CELL(abcABC):   25.29166    25.29166    25.29166    90.00000    90.00000    90.00000  Step:           3  Bead:       0 x_centroid{atomic_unit}  cell{atomic_unit}
       O  1.04500e+00 -1.83375e+00 -4.14149e-01
       O  5.50599e+00 -1.59501e+00  2.76586e-01
       H  3.53789e-01 -2.36974e+00 -2.02131e+00
       H  3.29365e+00 -1.71815e+00 -1.85158e-01
       H  6.22313e+00 -2.99624e+00  1.21106e+00
       H  6.66000e+00 -1.15571e+00 -1.07373e+00
       H  9.05853e-02 -3.83429e-01  1.66041e-01
7
# CELL(abcABC):   25.29166    25.29166    25.29166    90.00000    90.00000    90.00000  Step:           4  Bead:       0 x_centroid{atomic_unit}  cell{atomic_unit}
       O  1.04561e+00 -1.83349e+00 -4.14205e-01
       O  5.50542e+00 -1.59528e+00  2.76348e-01
       H  3.54705e-01 -2.37022e+00 -2.02130e+00
       H  3.29369e+00 -1.71816e+00 -1.85415e-01
       H  6.22209e+00 -2.99631e+00  1.21133e+00
       H  6.65913e+00 -1.15524e+00 -1.07403e+00
       H  9.14878e-02 -3.83328e-01  1.66605e-01
7
# CELL(abcABC):   25.29166    25.29166    25.29166    90.00000    90.00000    90.00000  Step:           5  Bead:       0 x_centroid{atomic_unit}  cell{atomic_unit}
       O  1.05051e+00 -1.83157e+00 -4.15145e-01
       O  5.50100e+00 -1.59740e+00  2.73976e-01
       H  3.65125e-01 -2.37581e+00 -2.02147e+00
       H  3.29426e+00 -1.71830e+00 -1.88627e-01
       H  6.21048e+00 -2.99797e+00  1.21492e+00
       H  6.64937e+00 -1.14970e+00 -1.07773e+00
       H  1.01424e-01 -3.81302e-01  1.73402e-01
7
# CELL(abcABC):   25.29166    25.29166    25.29166    90.00000    90.00000    90.00000  Step:           6  Bead:       0 x_centroid{atomic_unit}  cell{atomic_unit}
       O  1.05031e+00 -1.83179e+00 -4.14894e-01
       O  5.50111e+00 -1.59715e+00  2.74243e-01
       H  3.65311e-01 -2.37585e+00 -2.02158e+00
       H  3.29428e+00 -1.71831e+00 -1.88751e-01
       H  6.21011e+00 -2.99805e+00  1.21480e+00
       H  6.64922e+00 -1.14967e+00 -1.07789e+00
       H  1.01819e-01 -3.81239e-01  1.73392e-01
7
# CELL(abcABC):   25.29166    25.29166    25.29166    90.00000    90.00000    90.00000  Step:           7  Bead:       0 x_centroid{atomic_unit}  cell{atomic_unit}
       O  1.04944e+00 -1.83425e+00 -4.13023e-01
       O  5.50134e+00 -1.59455e+00  2.76046e-01
       H  3.66726e-01 -2.37566e+00 -2.02193e+00
       H  3.29441e+00 -1.71833e+00 -1.89479e-01
       H  6.20726e+00 -2.99868e+00  1.21342e+00
       H  6.64797e+00 -1.14987e+00 -1.07861e+00
       H  1.04989e-01 -3.80693e-01  1.72887e-01
7
# CELL(abcABC):   25.29166    25.29166    25.29166    90.00000    90.00000    90.00000  Step:           8  Bead:       0 x_centroid{atomic_unit}  cell{atomic_unit}
       O  1.04927e+00 -1.83740e+00 -4.10973e-01
       O  5.50088e+00 -1.59130e+00  2.77809e-01
       H  3.68227e-01 -2.37507e+00 -2.02193e+00
       H  3.29452e+00 -1.71835e+00 -1.89985e-01
       H  6.20409e+00 -2.99928e+00  1.21147e+00
       H  6.64654e+00 -1.15045e+00 -1.07903e+00
       H  1.08614e-01 -3.80175e-01  1.71946e-01
7
# CELL(abcABC):   25.29166    25.29166    25.29166    90.00000    90.00000    90.00000  Step:           9  Bead:       0 x_centroid{atomic_unit}  cell{atomic_unit}
       O  1.04970e+00 -1.83955e+00 -4.09819e-01
       O  5.50014e+00 -1.58914e+00  2.78646e-01
       H  3.69017e-01 -2.37447e+00 -2.02167e+00
       H  3.29453e+00 -1.71836e+00 -1.89945e-01
       H  6.20221e+00 -2.99956e+00  1.20999e+00
       H  6.64571e+00 -1.15103e+00 -1.07899e+00
       H  1.10837e-01 -3.79942e-01  1.71098e-01
7
# CELL(abcABC):   25.29166    25.29166    25.29166    90.00000    90.00000    90.00000  Step:          10  Bead:       0 x_centroid{atomic_unit}  cell{atomic_unit}
       O  1.05004e+00 -1.83994e+00 -4.09769e-01
       O  5.49981e+00 -1.58878e+00  2.78586e-01
       H  3.69000e-01 -2.37428e+00 -2.02152e+00
       H  3.29447e+00 -1.71835e+00 -1.89603e-01
       H  6.20201e+00 -2.99956e+00  1.20963e+00
       H  6.64568e+00 -1.15120e+00 -1.07883e+00
       H  1.11127e-01 -3.79952e-01  1.70824e-01
