1
CELL(abcABC):  300.0 300.0 300.0 90.0 90.0 90.0 cell{atomic_unit}  Traj: positions{angstrom}   
H     1.1441466   1.1441364   1.1471352  
1
CELL(abcABC):  300.0 300.0 300.0 90.0 90.0 90.0 cell{atomic_unit}  Traj: positions{angstrom}   
H     1.1503273   1.1503173   1.1503182  
1
CELL(abcABC):  300.0 300.0 300.0 90.0 90.0 90.0 cell{atomic_unit}  Traj: positions{angstrom}   
H     1.1649317   1.1649216   1.1649205  
1
CELL(abcABC):  300.0 300.0 300.0 90.0 90.0 90.0 cell{atomic_unit}  Traj: positions{angstrom}   
H     1.1880459   1.1880352   1.1880343  
1
CELL(abcABC):  300.0 300.0 300.0 90.0 90.0 90.0 cell{atomic_unit}  Traj: positions{angstrom}   
H     1.2194632   1.2194523   1.2194517  
1
CELL(abcABC):  300.0 300.0 300.0 90.0 90.0 90.0 cell{atomic_unit}  Traj: positions{angstrom}   
H     1.2583844   1.2583735   1.2583731  
1
CELL(abcABC):  300.0 300.0 300.0 90.0 90.0 90.0 cell{atomic_unit}  Traj: positions{angstrom}   
H     1.3031849   1.3031754   1.3031744  
1
CELL(abcABC):  300.0 300.0 300.0 90.0 90.0 90.0 cell{atomic_unit}  Traj: positions{angstrom}   
H     1.3513008   1.3512929   1.3512915  
1
CELL(abcABC):  300.0 300.0 300.0 90.0 90.0 90.0 cell{atomic_unit}  Traj: positions{angstrom}   
H     1.3996751   1.3996689   1.3996679  
1
CELL(abcABC):  300.0 300.0 300.0 90.0 90.0 90.0 cell{atomic_unit}  Traj: positions{angstrom}   
H     1.4454179   1.4454138   1.4454129  
1
CELL(abcABC):  300.0 300.0 300.0 90.0 90.0 90.0 cell{atomic_unit}  Traj: positions{angstrom}   
H     1.4863054   1.4863029   1.4863018  
1
CELL(abcABC):  300.0 300.0 300.0 90.0 90.0 90.0 cell{atomic_unit}  Traj: positions{angstrom}   
H     1.5208596   1.5208578   1.5208567  
1
CELL(abcABC):  300.0 300.0 300.0 90.0 90.0 90.0 cell{atomic_unit}  Traj: positions{angstrom}   
H     1.5482857   1.5482846   1.5482833  
1
CELL(abcABC):  300.0 300.0 300.0 90.0 90.0 90.0 cell{atomic_unit}  Traj: positions{angstrom}   
H     1.5683137   1.5683131   1.5683116  
1
CELL(abcABC):  300.0 300.0 300.0 90.0 90.0 90.0 cell{atomic_unit}  Traj: positions{angstrom}   
H     1.5809606   1.5809607   1.5809623  
1
CELL(abcABC):  300.0 300.0 300.0 90.0 90.0 90.0 cell{atomic_unit}  Traj: positions{angstrom}   
H     1.5863237   1.5863240   1.5850224  
