1
CELL(abcABC):  7.447216 7.447216 7.447216 90.000000 90.000000 90.000000 cell{atomic_unit}  Traj: positions{atomic_unit}   Bead:       0
H 2.536021485178015 -3.573777717926147e-06 -3.5535210802891476e-06
1
CELL(abcABC):  7.447216 7.447216 7.447216 90.000000 90.000000 90.000000 cell{atomic_unit}  Traj: positions{atomic_unit}   Bead:       1
H 2.5366212135342963 -3.4319502142174583e-06 -3.4114384018567856e-06
1
CELL(abcABC):  7.447216 7.447216 7.447216 90.000000 90.000000 90.000000 cell{atomic_unit}  Traj: positions{atomic_unit}   Bead:       2
H 2.537797382470495 -3.1542699230836596e-06 -3.133990131533218e-06
1
CELL(abcABC):  7.447216 7.447216 7.447216 90.000000 90.000000 90.000000 cell{atomic_unit}  Traj: positions{atomic_unit}   Bead:       3
H 2.5395043423639603 -2.752768197649831e-06 -2.734698076880939e-06
1
CELL(abcABC):  7.447216 7.447216 7.447216 90.000000 90.000000 90.000000 cell{atomic_unit}  Traj: positions{atomic_unit}   Bead:       4
H 2.541675895655521 -2.245874070849589e-06 -2.2322762416932765e-06
1
CELL(abcABC):  7.447216 7.447216 7.447216 90.000000 90.000000 90.000000 cell{atomic_unit}  Traj: positions{atomic_unit}   Bead:       5
H 2.544227923836711 -1.6586342604108595e-06 -1.6496397335949948e-06
1
CELL(abcABC):  7.447216 7.447216 7.447216 90.000000 90.000000 90.000000 cell{atomic_unit}  Traj: positions{atomic_unit}   Bead:       6
H 2.5470617179652018 -1.0178074350705e-06 -1.011804723333238e-06
1
CELL(abcABC):  7.447216 7.447216 7.447216 90.000000 90.000000 90.000000 cell{atomic_unit}  Traj: positions{atomic_unit}   Bead:       7
H 2.550067872608832 -3.427532676585266e-07 -3.407216461935098e-07
1
CELL(abcABC):  7.447216 7.447216 7.447216 90.000000 90.000000 90.000000 cell{atomic_unit}  Traj: positions{atomic_unit}   Bead:       8
H 2.553130574762637 3.4456756858726693e-07 3.4241453582850976e-07
1
CELL(abcABC):  7.447216 7.447216 7.447216 90.000000 90.000000 90.000000 cell{atomic_unit}  Traj: positions{atomic_unit}   Bead:       9
H 2.5561321011478846 1.022037212335664e-06 1.0158080104582596e-06
1
CELL(abcABC):  7.447216 7.447216 7.447216 90.000000 90.000000 90.000000 cell{atomic_unit}  Traj: positions{atomic_unit}   Bead:       10
H 2.5589573490002135 1.6657240813160248e-06 1.6556779969493021e-06
1
CELL(abcABC):  7.447216 7.447216 7.447216 90.000000 90.000000 90.000000 cell{atomic_unit}  Traj: positions{atomic_unit}   Bead:       11
H 2.5614982244819515 2.250863196412341e-06 2.23714122464981e-06
1
CELL(abcABC):  7.447216 7.447216 7.447216 90.000000 90.000000 90.000000 cell{atomic_unit}  Traj: positions{atomic_unit}   Bead:       12
H 2.5636577244432113 2.753123805802293e-06 2.736108833130909e-06
1
CELL(abcABC):  7.447216 7.447216 7.447216 90.000000 90.000000 90.000000 cell{atomic_unit}  Traj: positions{atomic_unit}   Bead:       13
H 2.5653535652650445 3.150659418555622e-06 3.1309716933366696e-06
1
CELL(abcABC):  7.447216 7.447216 7.447216 90.000000 90.000000 90.000000 cell{atomic_unit}  Traj: positions{atomic_unit}   Bead:       14
H 2.566521234670779 3.425796732214583e-06 3.4043174617758943e-06
1
CELL(abcABC):  7.447216 7.447216 7.447216 90.000000 90.000000 90.000000 cell{atomic_unit}  Traj: positions{atomic_unit}   Bead:       15
H 2.5671163668873884 3.566391209606492e-06 3.5440441645352604e-06
