1
CELL(abcABC):  7.447216 7.447216 7.447216 90.000000 90.000000 90.000000 cell{atomic_unit}  Traj: positions{atomic_unit}   Bead:       0
H -0.0028419991035877347 5.062746866683679e-06 5.054393147048601e-06
1
CELL(abcABC):  7.447216 7.447216 7.447216 90.000000 90.000000 90.000000 cell{atomic_unit}  Traj: positions{atomic_unit}   Bead:       1
H -0.002793834979617636 5.183980594053684e-06 5.141319048678907e-06
1
CELL(abcABC):  7.447216 7.447216 7.447216 90.000000 90.000000 90.000000 cell{atomic_unit}  Traj: positions{atomic_unit}   Bead:       2
H -0.0026688676902036977 5.343170034051847e-06 5.246448947545891e-06
1
CELL(abcABC):  7.447216 7.447216 7.447216 90.000000 90.000000 90.000000 cell{atomic_unit}  Traj: positions{atomic_unit}   Bead:       3
H -0.002431842707736466 5.339721703700351e-06 5.2166417237352526e-06
1
CELL(abcABC):  7.447216 7.447216 7.447216 90.000000 90.000000 90.000000 cell{atomic_unit}  Traj: positions{atomic_unit}   Bead:       4
H -0.00205276095335753 4.934223985698249e-06 4.850382059964017e-06
1
CELL(abcABC):  7.447216 7.447216 7.447216 90.000000 90.000000 90.000000 cell{atomic_unit}  Traj: positions{atomic_unit}   Bead:       5
H -0.001520616099574181 4.004442320155974e-06 3.990697040447411e-06
1
CELL(abcABC):  7.447216 7.447216 7.447216 90.000000 90.000000 90.000000 cell{atomic_unit}  Traj: positions{atomic_unit}   Bead:       6
H -0.0008469331323838957 2.6571166916253136e-06 2.650690930970538e-06
1
CELL(abcABC):  7.447216 7.447216 7.447216 90.000000 90.000000 90.000000 cell{atomic_unit}  Traj: positions{atomic_unit}   Bead:       7
H -9.429910312659437e-05 9.126104959837899e-07 9.053563477355476e-07
1
CELL(abcABC):  7.447216 7.447216 7.447216 90.000000 90.000000 90.000000 cell{atomic_unit}  Traj: positions{atomic_unit}   Bead:       8
H 0.0006384043076482472 -1.1069558288207254e-06 -1.1070353048254536e-06
1
CELL(abcABC):  7.447216 7.447216 7.447216 90.000000 90.000000 90.000000 cell{atomic_unit}  Traj: positions{atomic_unit}   Bead:       9
H 0.0012861757625815828 -3.1531562137749073e-06 -3.1643312454180697e-06
1
CELL(abcABC):  7.447216 7.447216 7.447216 90.000000 90.000000 90.000000 cell{atomic_unit}  Traj: positions{atomic_unit}   Bead:       10
H 0.0018093472218503536 -5.029695704774884e-06 -5.046185138172467e-06
1
CELL(abcABC):  7.447216 7.447216 7.447216 90.000000 90.000000 90.000000 cell{atomic_unit}  Traj: positions{atomic_unit}   Bead:       11
H 0.002182467057456169 -6.604209026981155e-06 -6.613094046741999e-06
1
CELL(abcABC):  7.447216 7.447216 7.447216 90.000000 90.000000 90.000000 cell{atomic_unit}  Traj: positions{atomic_unit}   Bead:       12
H 0.0024153144993051038 -7.806754155095822e-06 -7.806471486813624e-06
1
CELL(abcABC):  7.447216 7.447216 7.447216 90.000000 90.000000 90.000000 cell{atomic_unit}  Traj: positions{atomic_unit}   Bead:       13
H 0.002547283374935045 -8.638026602767284e-06 -8.630393238933302e-06
1
CELL(abcABC):  7.447216 7.447216 7.447216 90.000000 90.000000 90.000000 cell{atomic_unit}  Traj: positions{atomic_unit}   Bead:       14
H 0.0026149170903637057 -9.141824004378798e-06 -9.132529120898736e-06
1
CELL(abcABC):  7.447216 7.447216 7.447216 90.000000 90.000000 90.000000 cell{atomic_unit}  Traj: positions{atomic_unit}   Bead:       15
H 0.0026413497719772455 -9.375674829415361e-06 -9.367499895657264e-06
