1
CELL(abcABC):  7.447216 7.447216 7.447216 90.000000 90.000000 90.000000 cell{atomic_unit}  Traj: positions{atomic_unit}   Bead:       0
H -0.00016794967023450668 1.9696953124881043e-06 1.9585308228780667e-06
1
CELL(abcABC):  7.447216 7.447216 7.447216 90.000000 90.000000 90.000000 cell{atomic_unit}  Traj: positions{atomic_unit}   Bead:       1
H -0.00016143024884836724 1.8915267773171466e-06 1.880221647606702e-06
1
CELL(abcABC):  7.447216 7.447216 7.447216 90.000000 90.000000 90.000000 cell{atomic_unit}  Traj: positions{atomic_unit}   Bead:       2
H -0.0001486505309750213 1.7384826847668228e-06 1.7273054338273545e-06
1
CELL(abcABC):  7.447216 7.447216 7.447216 90.000000 90.000000 90.000000 cell{atomic_unit}  Traj: positions{atomic_unit}   Bead:       3
H -0.00013011816437542723 1.517194141112849e-06 1.5072347549999281e-06
1
CELL(abcABC):  7.447216 7.447216 7.447216 90.000000 90.000000 90.000000 cell{atomic_unit}  Traj: positions{atomic_unit}   Bead:       4
H -0.00010656838908735511 1.2378183476833766e-06 1.2303238747577507e-06
1
CELL(abcABC):  7.447216 7.447216 7.447216 90.000000 90.000000 90.000000 cell{atomic_unit}  Traj: positions{atomic_unit}   Bead:       5
H -7.893341559552015e-05 9.14159857082347e-07 9.092025041898068e-07
1
CELL(abcABC):  7.447216 7.447216 7.447216 90.000000 90.000000 90.000000 cell{atomic_unit}  Traj: positions{atomic_unit}   Bead:       6
H -4.83032431035117e-05 5.60966767411955e-07 5.576583598655665e-07
1
CELL(abcABC):  7.447216 7.447216 7.447216 90.000000 90.000000 90.000000 cell{atomic_unit}  Traj: positions{atomic_unit}   Bead:       7
H -1.587857138161942e-05 1.8890920419044703e-07 1.8778947162948744e-07
1
CELL(abcABC):  7.447216 7.447216 7.447216 90.000000 90.000000 90.000000 cell{atomic_unit}  Traj: positions{atomic_unit}   Bead:       8
H 1.7081376105408368e-05 -1.8990916006818875e-07 -1.8872251141030352e-07
1
CELL(abcABC):  7.447216 7.447216 7.447216 90.000000 90.000000 90.000000 cell{atomic_unit}  Traj: positions{atomic_unit}   Bead:       9
H 4.930812007045217e-05 -5.632980182925768e-07 -5.598647802159833e-07
1
CELL(abcABC):  7.447216 7.447216 7.447216 90.000000 90.000000 90.000000 cell{atomic_unit}  Traj: positions{atomic_unit}   Bead:       10
H 7.957296198146117e-05 -9.180674271959658e-07 -9.125305060867602e-07
1
CELL(abcABC):  7.447216 7.447216 7.447216 90.000000 90.000000 90.000000 cell{atomic_unit}  Traj: positions{atomic_unit}   Bead:       11
H 0.00010673297801243678 -1.2405681150192337e-06 -1.2330052206279072e-06
1
CELL(abcABC):  7.447216 7.447216 7.447216 90.000000 90.000000 90.000000 cell{atomic_unit}  Traj: positions{atomic_unit}   Bead:       12
H 0.00012977198695154438 -1.5173901353145795e-06 -1.5080122963558694e-06
1
CELL(abcABC):  7.447216 7.447216 7.447216 90.000000 90.000000 90.000000 cell{atomic_unit}  Traj: positions{atomic_unit}   Bead:       13
H 0.00014783532955733734 -1.7364927473935718e-06 -1.725641815092212e-06
1
CELL(abcABC):  7.447216 7.447216 7.447216 90.000000 90.000000 90.000000 cell{atomic_unit}  Traj: positions{atomic_unit}   Bead:       14
H 0.00016025779815232604 -1.8881352724130372e-06 -1.8762969260921307e-06
1
CELL(abcABC):  7.447216 7.447216 7.447216 90.000000 90.000000 90.000000 cell{atomic_unit}  Traj: positions{atomic_unit}   Bead:       15
H 0.00016658447001652535 -1.965624222464822e-06 -1.95330760027985e-06
