       128
       # CELL{H}: 24.0 0.00000000e+00 0.00000000e+00 0.00000000e+00 24.0 0.00000000e+00 0.00000000e+00 0.00000000e+00 24.0 velocities{atomic_unit} cell{atomic_unit}
	Na -6.589788281282e-05 -2.866808085323e-05 1.886308542148e-05
	Na 1.784067045670e-05 -8.111977567568e-05 6.455322633320e-05
	Na 5.788800632885e-05 -8.790142630712e-06 2.537791892653e-05
	Na -4.873336677348e-05 -2.107848019652e-05 -5.911689504847e-05
	Na -3.300228261336e-05 -5.042024013765e-05 -3.864530575908e-05
	Na -1.222931392094e-04 1.108602655027e-05 -1.329070770670e-05
	Na -1.874871318336e-05 -3.220875955327e-05 -1.539138623475e-05
	Na -1.097332002349e-04 -1.133080376257e-04 -4.478931873785e-05
	Na -5.972601262461e-05 -5.868518227763e-05 -9.360085439731e-06
	Na -3.999979944943e-05 -4.939607914483e-05 7.429736949325e-05
	Na 2.426482405300e-05 -7.372967951971e-06 5.509329081736e-05
	Na 4.982301558148e-06 4.160429590541e-05 -4.778289969889e-05
	Na 2.564657988064e-05 -2.879086073991e-05 3.867372697878e-05
	Na 3.800292168236e-05 -2.791815150532e-05 1.774251660051e-05
	Na -1.813422668616e-05 3.377684552323e-05 3.867891946046e-05
	Na -1.284919545623e-05 -3.128904933569e-05 2.740908899125e-06
	Na 1.647324224026e-05 3.088043214370e-05 2.739613253663e-05
	Na 3.087818519979e-05 -3.166203163008e-05 8.341189237490e-05
	Na -4.198321610630e-05 -5.443593754856e-05 1.259721929344e-05
	Na 3.255574206289e-05 -3.708511011447e-05 2.364004200079e-05
	Na 1.536699011085e-05 -3.947002842688e-05 -6.559525142154e-05
	Na 2.551395779260e-05 -5.103428003066e-05 4.127007548578e-05
	Na -1.776255192010e-05 3.744134339770e-05 3.954605719001e-05
	Na 2.955870198591e-05 -2.753347045353e-05 -3.526357426373e-05
	Na 4.436976161470e-06 2.317295537767e-05 -1.006960423073e-05
	Na 1.431456265388e-05 2.941063674109e-05 6.108088657548e-05
	Na 1.732090623456e-05 1.432310302454e-04 -3.001886046635e-05
	Na 4.593041838558e-05 5.448226423051e-05 -2.452036159999e-05
	Na 3.397358663238e-05 5.694076308063e-05 -5.825453774203e-05
	Na 3.788830691963e-05 -1.972048447493e-05 3.788397484558e-05
	Na 7.504948643423e-05 -1.013356438225e-05 7.727523397184e-05
	Na -9.665668300506e-06 -7.423380618608e-06 -3.486944869828e-05
	Na -1.474994554822e-05 -1.611578910435e-05 7.445574580790e-05
	Na -1.075018699981e-05 -1.586900359173e-05 -7.686793201109e-06
	Na 2.096631906343e-05 5.762359098847e-06 6.342023965326e-05
	Na 2.325201925807e-06 -5.884025702271e-05 -1.115281870474e-05
	Na 4.926506193622e-05 9.928715197990e-05 -5.478428354626e-05
	Na -3.635547762562e-05 6.787449588098e-05 -3.908196117323e-05
	Na -4.026270658242e-06 6.504519095360e-07 4.609086780228e-05
	Na 1.084165595246e-05 7.221371637127e-05 -3.561842265450e-05
	Na -4.804826404764e-05 3.132748910739e-05 -4.823232433379e-06
	Na 5.884570594391e-05 -2.868235118603e-05 -6.807742809289e-05
	Na 2.052116346423e-05 3.416527354975e-05 4.591274481028e-05
	Na -3.415769017239e-06 3.184854511088e-05 3.416172710189e-07
	Na -6.434650903750e-05 1.521922515003e-05 -1.891249368951e-05
	Na 6.815031130379e-06 1.676803560923e-05 -2.738605744339e-06
	Na -3.638470310504e-06 9.576188749874e-05 5.340580291854e-05
	Na 1.244937797464e-05 -1.200616589998e-05 -7.329024159548e-05
	Na -7.545023494754e-05 5.586593149837e-05 -1.606253551667e-05
	Na 2.260697132476e-05 -1.745688182873e-05 -2.966937559907e-05
	Na 3.290758605850e-05 -2.466002478409e-05 7.057201095614e-05
	Na 6.117160589176e-05 -8.211636091173e-06 -2.255575345182e-05
	Na -4.387468021408e-06 7.939567700467e-05 6.304551036109e-07
	Na -8.647858443765e-06 -4.605783596448e-06 1.397791905916e-05
	Na -3.595745107232e-06 1.193289516646e-05 5.891522618050e-06
	Na 1.591906918604e-05 -4.927197096418e-05 1.771232423478e-05
	Na -4.014139673015e-05 -3.833314419141e-05 -3.979773618235e-05
	Na 8.277136508376e-05 2.845135157790e-05 1.302127936774e-05
	Na -4.557608980334e-05 5.078189982849e-05 1.509257376579e-05
	Na -5.294665015024e-05 4.053550417603e-05 -2.311924388367e-05
	Na -1.133253215438e-05 -4.215308297271e-06 6.586236194606e-05
	Na -3.037155697041e-05 -6.545098547409e-05 2.045610236432e-06
	Na -5.086608178751e-05 4.803821693023e-05 -4.416869900649e-06
	Na -2.319881246181e-05 -8.790444527016e-06 6.603332084377e-07
	Na -2.924504227904e-05 -5.206371879514e-06 -8.296697918882e-05
	Na -6.543237707952e-06 -3.806683148306e-06 -5.910764661208e-05
	Na -2.353573255369e-05 -8.932338381814e-06 -3.594394995964e-05
	Na 1.840484852076e-05 -1.681003214305e-05 6.416602897982e-05
	Na 2.338831834110e-05 -1.300156424435e-05 4.017890085297e-06
	Na -7.726420664243e-06 2.388855753486e-05 5.315293515875e-05
	Na 3.999321097322e-05 -4.647929747312e-06 -5.963877450098e-05
	Na 3.003686814582e-06 -8.568088846878e-05 4.318723865851e-05
	Na 6.183701010462e-05 -2.431422150570e-05 -4.204041522087e-05
	Na 2.436503618126e-05 1.428550373402e-05 3.126853141789e-05
	Na -1.483175142814e-05 -6.815034092019e-05 -8.805986983537e-06
	Na 1.682986648146e-05 8.332736346789e-05 8.001682019159e-06
	Na -1.831166195046e-05 8.149370296971e-05 -1.726745679224e-05
	Na -1.727995619846e-05 -4.765356883412e-06 4.143561845112e-05
	Na -3.784909924944e-05 4.651442294941e-05 5.022267722600e-05
	Na -1.176214794418e-04 -5.265128639106e-05 -5.196740154627e-05
	Na 8.368448960009e-05 1.162701667695e-05 1.458687604207e-05
	Na 2.526093394172e-05 -3.867065167735e-05 -3.320878645380e-05
	Na 5.841898570858e-06 5.044003248010e-05 -5.235710842969e-05
	Na 4.868318661956e-05 9.262391681134e-06 -2.391120137566e-05
	Na -2.066857285656e-05 4.403701236947e-06 -1.001542855078e-04
	Na 3.891047875145e-05 1.245580519762e-05 8.234315233815e-06
	Na -1.021948144498e-06 3.507095075718e-05 2.165038407441e-05
	Na -6.495455894997e-06 -1.564031376812e-05 5.380168681761e-05
	Na 4.496856395656e-05 4.609647421707e-05 4.767746752624e-05
	Na -6.248703802506e-05 6.494617660411e-05 -1.899204328022e-05
	Na -2.052715949653e-05 5.845823144183e-06 1.159016882486e-05
	Na 6.434830994685e-05 -5.256568013416e-05 -1.736653772714e-05
	Na -1.674844797327e-06 2.041229170314e-05 2.985495069894e-06
	Na -1.378942295725e-05 -1.219647672046e-05 -3.061096952775e-05
	Na 4.466262410125e-05 3.093657483857e-05 -3.840587852654e-05
	Na -1.855183208141e-05 6.846306749702e-05 7.777063987290e-05
	Na 5.815581569365e-05 -4.930013729183e-05 1.626940816718e-05
	Na 4.370935047842e-05 1.990747746965e-05 -2.686496662166e-05
	Na 2.287699290536e-05 -5.020539136094e-05 -1.118066964272e-05
	Na 1.579081474367e-05 2.116628281147e-05 4.655564247611e-05
	Na -4.450241015606e-05 2.313510978563e-05 4.466703527004e-05
	Na 9.832866689022e-06 1.874866476399e-05 1.192126344159e-05
	Na -1.004284751097e-04 -2.298982494090e-05 3.439714743014e-05
	Na 2.004552873708e-05 -5.359148707728e-05 1.866592120255e-05
	Na -1.794799896459e-05 -4.489776932762e-05 -4.165840851140e-05
	Na 8.092780422869e-05 -2.205042949484e-05 -2.918460742285e-05
	Na -6.248346182681e-05 -2.096265393471e-05 -6.756871385331e-06
	Na -2.489865342320e-05 5.093331133308e-05 6.808587230708e-06
	Na 1.165683660580e-05 -3.187387235473e-05 -4.827273247920e-05
	Na -4.122258204436e-05 2.869630725776e-05 -6.109107710508e-05
	Na -6.883503767890e-05 -9.811642291042e-05 4.500584497415e-05
	Na 2.728523696091e-05 2.154471517684e-05 -4.887657948136e-05
	Na 1.731398899648e-05 -4.180279940321e-05 -3.474884155151e-05
	Na 1.356924978665e-05 -7.663257844317e-07 -5.087318216187e-05
	Na -6.359959490502e-05 -3.106113720725e-05 -5.667877385628e-05
	Na 1.157132826175e-05 -5.825926382293e-05 -3.251799193389e-05
	Na 2.704776614307e-05 -7.522453679062e-05 3.893299191637e-05
	Na -3.922283524990e-07 5.711812259862e-05 4.132227657313e-05
	Na -7.050392203399e-06 1.313250610473e-05 -2.109898980801e-05
	Na 4.403472510680e-05 -5.344268288672e-06 6.607319580681e-05
	Na 9.764333197645e-06 2.719589989974e-05 9.354552056946e-06
	Na 9.784766673104e-06 -6.709872866157e-05 6.368988676829e-05
	Na 4.739067412947e-05 6.936456770989e-05 -3.582969736834e-05
	Na 3.867997804917e-05 2.592372033944e-05 1.465285102645e-05
	Na -5.183348760213e-05 -5.672504084261e-06 -4.714440802067e-05
	Na 6.965722969268e-06 2.696071400764e-05 3.443325323375e-05
	Na 8.859736589217e-06 -6.809814432458e-06 -1.185040955012e-05
	Na 1.687994542523e-05 2.183316464842e-06 -7.942077782012e-05

