1
CELL(abcABC):  7.447216 7.447216 7.447216 90.000000 90.000000 90.000000 cell{atomic_unit}  Traj: positions{atomic_unit}   Bead:       0
H -0.0002194524800612796 2.918848354959894e-18 1.2546245784256423e-18
1
CELL(abcABC):  7.447216 7.447216 7.447216 90.000000 90.000000 90.000000 cell{atomic_unit}  Traj: positions{atomic_unit}   Bead:       1
H -0.0002231077870895615 3.898872716369432e-18 -1.4994557264278967e-18
1
CELL(abcABC):  7.447216 7.447216 7.447216 90.000000 90.000000 90.000000 cell{atomic_unit}  Traj: positions{atomic_unit}   Bead:       2
H -0.0002304727628029204 3.4553770014905485e-19 2.0965808818683565e-18
1
CELL(abcABC):  7.447216 7.447216 7.447216 90.000000 90.000000 90.000000 cell{atomic_unit}  Traj: positions{atomic_unit}   Bead:       3
H -0.00024165648250340662 2.145320122665655e-19 -1.7628954863347913e-18
1
CELL(abcABC):  7.447216 7.447216 7.447216 90.000000 90.000000 90.000000 cell{atomic_unit}  Traj: positions{atomic_unit}   Bead:       4
H -0.00025682340653841805 -7.198338719021919e-19 1.1422664520474042e-18
1
CELL(abcABC):  7.447216 7.447216 7.447216 90.000000 90.000000 90.000000 cell{atomic_unit}  Traj: positions{atomic_unit}   Bead:       5
H -0.00027619430301428197 -6.913184120262321e-19 4.621922205442818e-19
1
CELL(abcABC):  7.447216 7.447216 7.447216 90.000000 90.000000 90.000000 cell{atomic_unit}  Traj: positions{atomic_unit}   Bead:       6
H -0.00030004731216197206 -1.1404859841540479e-18 1.453338328395566e-18
1
CELL(abcABC):  7.447216 7.447216 7.447216 90.000000 90.000000 90.000000 cell{atomic_unit}  Traj: positions{atomic_unit}   Bead:       7
H -0.00032871899161852474 -1.7821372208950986e-19 1.1512114513395927e-18
1
CELL(abcABC):  7.447216 7.447216 7.447216 90.000000 90.000000 90.000000 cell{atomic_unit}  Traj: positions{atomic_unit}   Bead:       8
H -0.00036260511734779414 -3.551557554136189e-19 -5.887633085064573e-19
1
CELL(abcABC):  7.447216 7.447216 7.447216 90.000000 90.000000 90.000000 cell{atomic_unit}  Traj: positions{atomic_unit}   Bead:       9
H -0.0004021609322952062 5.761343886273329e-19 6.467283677494194e-19
1
CELL(abcABC):  7.447216 7.447216 7.447216 90.000000 90.000000 90.000000 cell{atomic_unit}  Traj: positions{atomic_unit}   Bead:       10
H -0.0004479004285773042 5.697364844461988e-19 6.42627253358009e-19
1
CELL(abcABC):  7.447216 7.447216 7.447216 90.000000 90.000000 90.000000 cell{atomic_unit}  Traj: positions{atomic_unit}   Bead:       11
H -0.0005003941125500401 -1.407685669998081e-19 1.4752691440516443e-18
1
CELL(abcABC):  7.447216 7.447216 7.447216 90.000000 90.000000 90.000000 cell{atomic_unit}  Traj: positions{atomic_unit}   Bead:       12
H -0.0005602645277872137 2.1894868882269562e-18 4.801496665961109e-18
1
CELL(abcABC):  7.447216 7.447216 7.447216 90.000000 90.000000 90.000000 cell{atomic_unit}  Traj: positions{atomic_unit}   Bead:       13
H -0.0006281785899755989 -4.80759780589825e-18 -1.7486867553821396e-18
1
CELL(abcABC):  7.447216 7.447216 7.447216 90.000000 90.000000 90.000000 cell{atomic_unit}  Traj: positions{atomic_unit}   Bead:       14
H -0.0007048355102810914 -1.183303604510871e-18 3.2154542994504237e-18
1
CELL(abcABC):  7.447216 7.447216 7.447216 90.000000 90.000000 90.000000 cell{atomic_unit}  Traj: positions{atomic_unit}   Bead:       15
H -0.0007909487395172728 -4.6035951837749355e-19 4.180688994890173e-18
1
CELL(abcABC):  7.447216 7.447216 7.447216 90.000000 90.000000 90.000000 cell{atomic_unit}  Traj: positions{atomic_unit}   Bead:       16
H -0.0008872199449205367 2.0028757193430952e-19 1.3738069215587463e-18
1
CELL(abcABC):  7.447216 7.447216 7.447216 90.000000 90.000000 90.000000 cell{atomic_unit}  Traj: positions{atomic_unit}   Bead:       17
H -0.0009943025273774946 -9.045354412260874e-19 2.151746388493863e-18
1
CELL(abcABC):  7.447216 7.447216 7.447216 90.000000 90.000000 90.000000 cell{atomic_unit}  Traj: positions{atomic_unit}   Bead:       18
H -0.001112751598511882 -1.4764284336758671e-18 1.024561905939126e-18
1
CELL(abcABC):  7.447216 7.447216 7.447216 90.000000 90.000000 90.000000 cell{atomic_unit}  Traj: positions{atomic_unit}   Bead:       19
H -0.0012429566744556395 -1.3403810638143367e-18 2.597909395377283e-18
1
CELL(abcABC):  7.447216 7.447216 7.447216 90.000000 90.000000 90.000000 cell{atomic_unit}  Traj: positions{atomic_unit}   Bead:       20
H -0.0013850526371152708 -1.0773218072031526e-19 2.1729211577040543e-18
1
CELL(abcABC):  7.447216 7.447216 7.447216 90.000000 90.000000 90.000000 cell{atomic_unit}  Traj: positions{atomic_unit}   Bead:       21
H -0.001538803828335631 -7.115684966287363e-20 1.545802398267358e-18
1
CELL(abcABC):  7.447216 7.447216 7.447216 90.000000 90.000000 90.000000 cell{atomic_unit}  Traj: positions{atomic_unit}   Bead:       22
H -0.001703455595122856 -2.731682088253008e-19 5.819588716072971e-19
1
CELL(abcABC):  7.447216 7.447216 7.447216 90.000000 90.000000 90.000000 cell{atomic_unit}  Traj: positions{atomic_unit}   Bead:       23
H -0.001877547393175203 -5.195085144279695e-20 3.9357540863636244e-19
1
CELL(abcABC):  7.447216 7.447216 7.447216 90.000000 90.000000 90.000000 cell{atomic_unit}  Traj: positions{atomic_unit}   Bead:       24
H -0.0020586819985752144 -3.0189169583707746e-19 1.5394286901017714e-19
1
CELL(abcABC):  7.447216 7.447216 7.447216 90.000000 90.000000 90.000000 cell{atomic_unit}  Traj: positions{atomic_unit}   Bead:       25
H -0.002243246955989694 -1.0943697291432874e-19 1.54609740371375e-19
1
CELL(abcABC):  7.447216 7.447216 7.447216 90.000000 90.000000 90.000000 cell{atomic_unit}  Traj: positions{atomic_unit}   Bead:       26
H -0.002426087807453508 -7.946923451396743e-20 1.1536776015198297e-19
1
CELL(abcABC):  7.447216 7.447216 7.447216 90.000000 90.000000 90.000000 cell{atomic_unit}  Traj: positions{atomic_unit}   Bead:       27
H -0.00260013886475009 -9.087615318274101e-20 1.0707921781449247e-19
1
CELL(abcABC):  7.447216 7.447216 7.447216 90.000000 90.000000 90.000000 cell{atomic_unit}  Traj: positions{atomic_unit}   Bead:       28
H -0.0027560275551210085 1.7114349056235656e-19 1.6849652408967945e-19
1
CELL(abcABC):  7.447216 7.447216 7.447216 90.000000 90.000000 90.000000 cell{atomic_unit}  Traj: positions{atomic_unit}   Bead:       29
H -0.002881684136044738 -9.468908829437387e-20 -1.2095412876660914e-20
1
CELL(abcABC):  7.447216 7.447216 7.447216 90.000000 90.000000 90.000000 cell{atomic_unit}  Traj: positions{atomic_unit}   Bead:       30
H -0.002962011256509088 3.1214949606109326e-20 3.685105223472319e-20
1
CELL(abcABC):  7.447216 7.447216 7.447216 90.000000 90.000000 90.000000 cell{atomic_unit}  Traj: positions{atomic_unit}   Bead:       31
H -0.0029787141681943286 -8.920263765458061e-20 -1.001228305778602e-20
1
CELL(abcABC):  7.447216 7.447216 7.447216 90.000000 90.000000 90.000000 cell{atomic_unit}  Traj: positions{atomic_unit}   Bead:       32
H -0.00291452046945091 -1.932709243437222e-19 -8.183374353390028e-20
1
CELL(abcABC):  7.447216 7.447216 7.447216 90.000000 90.000000 90.000000 cell{atomic_unit}  Traj: positions{atomic_unit}   Bead:       33
H -0.002762087189692616 1.459108670442898e-20 -8.288555840350561e-21
1
CELL(abcABC):  7.447216 7.447216 7.447216 90.000000 90.000000 90.000000 cell{atomic_unit}  Traj: positions{atomic_unit}   Bead:       34
H -0.002520928566014164 -1.8527591893518689e-19 -1.4121970647832997e-19
1
CELL(abcABC):  7.447216 7.447216 7.447216 90.000000 90.000000 90.000000 cell{atomic_unit}  Traj: positions{atomic_unit}   Bead:       35
H -0.002197953298067628 2.5629517619000103e-19 5.585796671693134e-20
1
CELL(abcABC):  7.447216 7.447216 7.447216 90.000000 90.000000 90.000000 cell{atomic_unit}  Traj: positions{atomic_unit}   Bead:       36
H -0.0018051345991662263 -8.453253435194077e-21 -5.675103259828754e-20
1
CELL(abcABC):  7.447216 7.447216 7.447216 90.000000 90.000000 90.000000 cell{atomic_unit}  Traj: positions{atomic_unit}   Bead:       37
H -0.0013512075684881594 2.449992995500529e-19 1.2125364889589438e-19
1
CELL(abcABC):  7.447216 7.447216 7.447216 90.000000 90.000000 90.000000 cell{atomic_unit}  Traj: positions{atomic_unit}   Bead:       38
H -0.0008480783944642337 1.173771354065771e-19 1.3410957702736459e-19
1
CELL(abcABC):  7.447216 7.447216 7.447216 90.000000 90.000000 90.000000 cell{atomic_unit}  Traj: positions{atomic_unit}   Bead:       39
H -0.0003183592786555245 -1.9286552186105507e-19 -3.788778127242024e-20
1
CELL(abcABC):  7.447216 7.447216 7.447216 90.000000 90.000000 90.000000 cell{atomic_unit}  Traj: positions{atomic_unit}   Bead:       40
H 0.00020891039315346958 9.322278645600371e-20 7.469060117401556e-20
1
CELL(abcABC):  7.447216 7.447216 7.447216 90.000000 90.000000 90.000000 cell{atomic_unit}  Traj: positions{atomic_unit}   Bead:       41
H 0.0007124138316730492 -3.8881731685736115e-19 -1.7142434802395326e-19
1
CELL(abcABC):  7.447216 7.447216 7.447216 90.000000 90.000000 90.000000 cell{atomic_unit}  Traj: positions{atomic_unit}   Bead:       42
H 0.0011803997856740293 2.2042120659718926e-19 8.841135884964981e-20
1
CELL(abcABC):  7.447216 7.447216 7.447216 90.000000 90.000000 90.000000 cell{atomic_unit}  Traj: positions{atomic_unit}   Bead:       43
H 0.0016022842256609644 -1.9122762078971074e-19 -1.5597869502733722e-19
1
CELL(abcABC):  7.447216 7.447216 7.447216 90.000000 90.000000 90.000000 cell{atomic_unit}  Traj: positions{atomic_unit}   Bead:       44
H 0.0019634978963277575 1.808639315658302e-19 4.1640816462839086e-20
1
CELL(abcABC):  7.447216 7.447216 7.447216 90.000000 90.000000 90.000000 cell{atomic_unit}  Traj: positions{atomic_unit}   Bead:       45
H 0.0022515526214084967 8.320702615846372e-20 4.340658130254288e-20
1
CELL(abcABC):  7.447216 7.447216 7.447216 90.000000 90.000000 90.000000 cell{atomic_unit}  Traj: positions{atomic_unit}   Bead:       46
H 0.0024624418537030892 -1.0596749442163614e-19 -6.262283295634732e-20
1
CELL(abcABC):  7.447216 7.447216 7.447216 90.000000 90.000000 90.000000 cell{atomic_unit}  Traj: positions{atomic_unit}   Bead:       47
H 0.002606492626846252 2.9563216984705076e-19 2.1131507867423388e-19
1
CELL(abcABC):  7.447216 7.447216 7.447216 90.000000 90.000000 90.000000 cell{atomic_unit}  Traj: positions{atomic_unit}   Bead:       48
H 0.002696152568201153 -4.754601962755594e-19 -1.91370258141311e-19
1
CELL(abcABC):  7.447216 7.447216 7.447216 90.000000 90.000000 90.000000 cell{atomic_unit}  Traj: positions{atomic_unit}   Bead:       49
H 0.002742731643223398 4.806811011126829e-19 2.5623652728496025e-19
1
CELL(abcABC):  7.447216 7.447216 7.447216 90.000000 90.000000 90.000000 cell{atomic_unit}  Traj: positions{atomic_unit}   Bead:       50
H 0.0027560613068236474 -5.882442139279923e-19 -3.803935706925738e-19
1
CELL(abcABC):  7.447216 7.447216 7.447216 90.000000 90.000000 90.000000 cell{atomic_unit}  Traj: positions{atomic_unit}   Bead:       51
H 0.002744166138027287 5.636032565532708e-19 2.5283342944249297e-19
1
CELL(abcABC):  7.447216 7.447216 7.447216 90.000000 90.000000 90.000000 cell{atomic_unit}  Traj: positions{atomic_unit}   Bead:       52
H 0.0027138477983584073 -4.999423502872441e-19 -3.1473460272122354e-19
1
CELL(abcABC):  7.447216 7.447216 7.447216 90.000000 90.000000 90.000000 cell{atomic_unit}  Traj: positions{atomic_unit}   Bead:       53
H 0.0026708917537944547 5.093081263784426e-19 2.8693368961403553e-19
1
CELL(abcABC):  7.447216 7.447216 7.447216 90.000000 90.000000 90.000000 cell{atomic_unit}  Traj: positions{atomic_unit}   Bead:       54
H 0.002620146606781617 -4.063628652222496e-19 -1.6622375026892317e-19
1
CELL(abcABC):  7.447216 7.447216 7.447216 90.000000 90.000000 90.000000 cell{atomic_unit}  Traj: positions{atomic_unit}   Bead:       55
H 0.0025656222509702867 3.119219803642655e-19 2.599711223152911e-19
1
CELL(abcABC):  7.447216 7.447216 7.447216 90.000000 90.000000 90.000000 cell{atomic_unit}  Traj: positions{atomic_unit}   Bead:       56
H 0.0025106450386819454 -2.41175579502795e-19 -1.3234835075576556e-19
1
CELL(abcABC):  7.447216 7.447216 7.447216 90.000000 90.000000 90.000000 cell{atomic_unit}  Traj: positions{atomic_unit}   Bead:       57
H 0.0024580284893025188 1.9204429715887727e-19 6.502018976641585e-20
1
CELL(abcABC):  7.447216 7.447216 7.447216 90.000000 90.000000 90.000000 cell{atomic_unit}  Traj: positions{atomic_unit}   Bead:       58
H 0.002409931986528058 -1.1938873220307107e-19 -1.246850792237005e-19
1
CELL(abcABC):  7.447216 7.447216 7.447216 90.000000 90.000000 90.000000 cell{atomic_unit}  Traj: positions{atomic_unit}   Bead:       59
H 0.002367947102369918 5.72097244569956e-20 3.0549077546999205e-20
1
CELL(abcABC):  7.447216 7.447216 7.447216 90.000000 90.000000 90.000000 cell{atomic_unit}  Traj: positions{atomic_unit}   Bead:       60
H 0.0023332234473285927 -6.439256787472673e-20 -3.953922003381795e-20
1
CELL(abcABC):  7.447216 7.447216 7.447216 90.000000 90.000000 90.000000 cell{atomic_unit}  Traj: positions{atomic_unit}   Bead:       61
H 0.002306568724125822 2.1805078379397512e-20 9.1266795075108e-21
1
CELL(abcABC):  7.447216 7.447216 7.447216 90.000000 90.000000 90.000000 cell{atomic_unit}  Traj: positions{atomic_unit}   Bead:       62
H 0.0022885252006694425 -6.97636743613354e-21 -9.813372605302348e-21
1
CELL(abcABC):  7.447216 7.447216 7.447216 90.000000 90.000000 90.000000 cell{atomic_unit}  Traj: positions{atomic_unit}   Bead:       63
H 0.0022794248197213797 2.883887319502092e-20 3.5804673668835534e-20
