7
# CELL(abcABC):   25.29166    25.29166    25.29166    90.00000    90.00000    90.00000  Step:           0  Bead:       0 x_centroid{atomic_unit}  cell{atomic_unit}
       O  1.02130e+00 -1.84220e+00 -4.09276e-01
       O  5.52715e+00 -1.58596e+00  2.87988e-01
       H  3.47444e-01 -2.37735e+00 -2.03854e+00
       H  3.29434e+00 -1.71829e+00 -1.89719e-01
       H  6.23055e+00 -3.01079e+00  1.22313e+00
       H  6.67136e+00 -1.14921e+00 -1.08863e+00
       H  7.99951e-02 -3.68232e-01  1.74386e-01
7
# CELL(abcABC):   25.29166    25.29166    25.29166    90.00000    90.00000    90.00000  Step:           1  Bead:       0 x_centroid{atomic_unit}  cell{atomic_unit}
       O  1.02312e+00 -1.83926e+00 -4.11783e-01
       O  5.52616e+00 -1.58909e+00  2.85226e-01
       H  3.49405e-01 -2.37489e+00 -2.03274e+00
       H  3.29418e+00 -1.71825e+00 -1.88694e-01
       H  6.22832e+00 -3.00576e+00  1.21922e+00
       H  6.66769e+00 -1.15131e+00 -1.08356e+00
       H  8.32567e-02 -3.73467e-01  1.71667e-01
7
# CELL(abcABC):   25.29166    25.29166    25.29166    90.00000    90.00000    90.00000  Step:           2  Bead:       0 x_centroid{atomic_unit}  cell{atomic_unit}
       O  1.03288e+00 -1.83527e+00 -4.14149e-01
       O  5.51756e+00 -1.59334e+00  2.80213e-01
       H  3.52002e-01 -2.37107e+00 -2.02459e+00
       H  3.29385e+00 -1.71819e+00 -1.86524e-01
       H  6.22523e+00 -2.99872e+00  1.21333e+00
       H  6.66270e+00 -1.15460e+00 -1.07637e+00
       H  8.79192e-02 -3.80828e-01  1.67432e-01
7
# CELL(abcABC):   25.29166    25.29166    25.29166    90.00000    90.00000    90.00000  Step:           3  Bead:       0 x_centroid{atomic_unit}  cell{atomic_unit}
       O  1.04132e+00 -1.83375e+00 -4.14544e-01
       O  5.50962e+00 -1.59499e+00  2.77333e-01
       H  3.53451e-01 -2.36967e+00 -2.02137e+00
       H  3.29368e+00 -1.71816e+00 -1.85392e-01
       H  6.22352e+00 -2.99614e+00  1.21105e+00
       H  6.66033e+00 -1.15579e+00 -1.07367e+00
       H  9.02087e-02 -3.83529e-01  1.65934e-01
7
# CELL(abcABC):   25.29166    25.29166    25.29166    90.00000    90.00000    90.00000  Step:           4  Bead:       0 x_centroid{atomic_unit}  cell{atomic_unit}
       O  1.04539e+00 -1.83339e+00 -4.14344e-01
       O  5.50567e+00 -1.59539e+00  2.76284e-01
       H  3.54587e-01 -2.36994e+00 -2.02097e+00
       H  3.29367e+00 -1.71816e+00 -1.85303e-01
       H  6.22222e+00 -2.99600e+00  1.21103e+00
       H  6.65914e+00 -1.15549e+00 -1.07366e+00
       H  9.14479e-02 -3.83664e-01  1.66303e-01
7
# CELL(abcABC):   25.29166    25.29166    25.29166    90.00000    90.00000    90.00000  Step:           5  Bead:       0 x_centroid{atomic_unit}  cell{atomic_unit}
       O  1.04719e+00 -1.83320e+00 -4.14257e-01
       O  5.50392e+00 -1.59561e+00  2.75810e-01
       H  3.56027e-01 -2.37080e+00 -2.02116e+00
       H  3.29374e+00 -1.71818e+00 -1.85687e-01
       H  6.22061e+00 -2.99640e+00  1.21163e+00
       H  6.65784e+00 -1.15465e+00 -1.07433e+00
       H  9.27948e-02 -3.83207e-01  1.67337e-01
7
# CELL(abcABC):   25.29166    25.29166    25.29166    90.00000    90.00000    90.00000  Step:           6  Bead:       0 x_centroid{atomic_unit}  cell{atomic_unit}
       O  1.04985e+00 -1.83267e+00 -4.14291e-01
       O  5.50136e+00 -1.59620e+00  2.74939e-01
       H  3.60003e-01 -2.37312e+00 -2.02160e+00
       H  3.29396e+00 -1.71823e+00 -1.86939e-01
       H  6.21614e+00 -2.99737e+00  1.21322e+00
       H  6.65423e+00 -1.15237e+00 -1.07611e+00
       H  9.65728e-02 -3.82081e-01  1.70126e-01
7
# CELL(abcABC):   25.29166    25.29166    25.29166    90.00000    90.00000    90.00000  Step:           7  Bead:       0 x_centroid{atomic_unit}  cell{atomic_unit}
       O  1.05103e+00 -1.83223e+00 -4.14488e-01
       O  5.50028e+00 -1.59670e+00  2.74378e-01
       H  3.63875e-01 -2.37518e+00 -2.02178e+00
       H  3.29419e+00 -1.71829e+00 -1.88227e-01
       H  6.21172e+00 -2.99809e+00  1.21447e+00
       H  6.65063e+00 -1.15034e+00 -1.07760e+00
       H  1.00398e-01 -3.81227e-01  1.72597e-01
7
# CELL(abcABC):   25.29166    25.29166    25.29166    90.00000    90.00000    90.00000  Step:           8  Bead:       0 x_centroid{atomic_unit}  cell{atomic_unit}
       O  1.05078e+00 -1.83222e+00 -4.14564e-01
       O  5.50054e+00 -1.59673e+00  2.74358e-01
       H  3.65795e-01 -2.37599e+00 -2.02169e+00
       H  3.29430e+00 -1.71831e+00 -1.88895e-01
       H  6.20940e+00 -2.99830e+00  1.21475e+00
       H  6.64879e+00 -1.14954e+00 -1.07814e+00
       H  1.02519e-01 -3.80974e-01  1.73546e-01
7
# CELL(abcABC):   25.29166    25.29166    25.29166    90.00000    90.00000    90.00000  Step:           9  Bead:       0 x_centroid{atomic_unit}  cell{atomic_unit}
       O  1.05034e+00 -1.83255e+00 -4.14421e-01
       O  5.50092e+00 -1.59639e+00  2.74606e-01
       H  3.66159e-01 -2.37593e+00 -2.02157e+00
       H  3.29432e+00 -1.71832e+00 -1.89022e-01
       H  6.20879e+00 -2.99829e+00  1.21446e+00
       H  6.64841e+00 -1.14958e+00 -1.07814e+00
       H  1.03184e-01 -3.80996e-01  1.73456e-01
7
# CELL(abcABC):   25.29166    25.29166    25.29166    90.00000    90.00000    90.00000  Step:          10  Bead:       0 x_centroid{atomic_unit}  cell{atomic_unit}
       O  1.04989e+00 -1.83332e+00 -4.13998e-01
       O  5.50123e+00 -1.59560e+00  2.75089e-01
       H  3.66438e-01 -2.37568e+00 -2.02146e+00
       H  3.29434e+00 -1.71833e+00 -1.89093e-01
       H  6.20809e+00 -2.99833e+00  1.21385e+00
       H  6.64811e+00 -1.14983e+00 -1.07811e+00
       H  1.04035e-01 -3.80994e-01  1.73086e-01
