7
# CELL(abcABC):   25.29166    25.29166    25.29166    90.00000    90.00000    90.00000  Step:           0  Bead:       0 f_centroid{atomic_unit}  cell{atomic_unit}
       O  1.81782e-03  2.94126e-03 -2.50671e-03
       O -9.85165e-04 -3.13301e-03 -2.76220e-03
       H  1.96107e-03  2.46574e-03  5.79977e-03
       H -1.56524e-04  3.14017e-05  1.02516e-03
       H -2.23501e-03  5.02979e-03 -3.90609e-03
       H -3.66372e-03 -2.09913e-03  5.06836e-03
       H  3.26160e-03 -5.23500e-03 -2.71833e-03
7
# CELL(abcABC):   25.29166    25.29166    25.29166    90.00000    90.00000    90.00000  Step:           1  Bead:       0 f_centroid{atomic_unit}  cell{atomic_unit}
       O  4.37390e-03  1.25735e-03 -5.63209e-04
       O -4.00535e-03 -1.34350e-03 -1.80606e-03
       H  8.08235e-04  1.28723e-03  2.62242e-03
       H -1.26109e-04  2.42522e-05  8.22895e-04
       H -9.86407e-04  2.26030e-03 -1.96726e-03
       H -1.57985e-03 -1.11561e-03  2.32524e-03
       H  1.51357e-03 -2.36927e-03 -1.43379e-03
7
# CELL(abcABC):   25.29166    25.29166    25.29166    90.00000    90.00000    90.00000  Step:           2  Bead:       0 f_centroid{atomic_unit}  cell{atomic_unit}
       O  4.29073e-03 -2.84740e-04  7.58493e-04
       O -4.32372e-03  2.85821e-04 -6.17209e-04
       H  1.32266e-04 -2.06218e-04 -4.36545e-04
       H -3.20966e-05  5.65592e-06  2.35190e-04
       H -1.72744e-04 -5.29602e-04  2.70047e-04
       H  1.73713e-05  1.84519e-04 -4.74162e-04
       H  8.89841e-05  5.43299e-04  2.66211e-04
7
# CELL(abcABC):   25.29166    25.29166    25.29166    90.00000    90.00000    90.00000  Step:           3  Bead:       0 f_centroid{atomic_unit}  cell{atomic_unit}
       O  1.86369e-03 -2.71723e-04  5.11083e-04
       O -1.93633e-03  2.82100e-04 -1.10734e-04
       H  4.12192e-04 -6.51310e-04 -7.80666e-04
       H  3.22146e-05 -9.31806e-06 -1.78166e-04
       H -4.66295e-04 -8.01558e-04  7.10362e-04
       H -1.41698e-04  6.02927e-04 -9.11376e-04
       H  2.35180e-04  8.48226e-04  7.60755e-04
7
# CELL(abcABC):   25.29166    25.29166    25.29166    90.00000    90.00000    90.00000  Step:           4  Bead:       0 f_centroid{atomic_unit}  cell{atomic_unit}
       O  1.63665e-04  1.61492e-05  2.88949e-05
       O -1.67661e-04 -2.46359e-05 -2.99053e-05
       H  7.24583e-04 -5.74060e-04 -3.03143e-04
       H  5.50799e-05 -1.22697e-05 -3.16979e-04
       H -8.03753e-04 -3.76531e-04  4.87171e-04
       H -5.89183e-04  5.50700e-04 -5.45589e-04
       H  6.17126e-04  4.17346e-04  6.81790e-04
7
# CELL(abcABC):   25.29166    25.29166    25.29166    90.00000    90.00000    90.00000  Step:           5  Bead:       0 f_centroid{atomic_unit}  cell{atomic_unit}
       O -5.48212e-04  1.61384e-04 -1.90518e-04
       O  5.76451e-04 -1.72510e-04 -1.48901e-05
       H  8.04241e-04 -4.18646e-04  2.82228e-05
       H  5.38350e-05 -1.19712e-05 -3.22873e-04
       H -9.05993e-04 -6.85318e-05  2.43625e-04
       H -7.70248e-04  4.15695e-04 -2.43666e-04
       H  7.88108e-04  9.39281e-05  4.99581e-04
7
# CELL(abcABC):   25.29166    25.29166    25.29166    90.00000    90.00000    90.00000  Step:           6  Bead:       0 f_centroid{atomic_unit}  cell{atomic_unit}
       O -1.20219e-03  2.13541e-04 -3.63228e-04
       O  1.25402e-03 -2.33925e-04  3.50994e-05
       H  7.07789e-04 -8.54456e-05  4.41429e-04
       H  3.95616e-05 -9.71312e-06 -2.42481e-04
       H -8.37170e-04  3.19898e-04 -1.74414e-04
       H -8.03833e-04  1.10278e-04  1.98307e-04
       H  8.43984e-04 -3.17100e-04  1.08668e-04
7
# CELL(abcABC):   25.29166    25.29166    25.29166    90.00000    90.00000    90.00000  Step:           7  Bead:       0 f_centroid{atomic_unit}  cell{atomic_unit}
       O -9.57252e-04  3.20327e-05 -1.94089e-04
       O  9.73239e-04 -3.50113e-05  1.04055e-04
       H  3.76541e-04  1.30072e-04  4.20306e-04
       H  1.71624e-05 -4.77058e-06 -1.08591e-04
       H -5.21470e-04  3.28194e-04 -3.56863e-04
       H -4.89139e-04 -1.05521e-04  2.95233e-04
       H  6.01499e-04 -3.43604e-04 -1.60114e-04
7
# CELL(abcABC):   25.29166    25.29166    25.29166    90.00000    90.00000    90.00000  Step:           8  Bead:       0 f_centroid{atomic_unit}  cell{atomic_unit}
       O -3.12993e-04 -2.05392e-04  7.28193e-05
       O  2.78337e-04  2.09984e-04  1.52430e-04
       H  8.16286e-05  1.58664e-04  1.55141e-04
       H  2.54659e-06 -1.52056e-06 -9.44738e-06
       H -2.18375e-04  9.99350e-05 -2.93427e-04
       H -1.26525e-04 -1.48216e-04  1.29924e-04
       H  2.96568e-04 -1.16540e-04 -2.06069e-04
7
# CELL(abcABC):   25.29166    25.29166    25.29166    90.00000    90.00000    90.00000  Step:           9  Bead:       0 f_centroid{atomic_unit}  cell{atomic_unit}
       O  3.50383e-05 -2.98738e-04  2.00434e-04
       O -9.09012e-05  3.12380e-04  1.58805e-04
       H -2.58055e-05  1.17369e-04 -1.92713e-05
       H -3.24718e-06  2.14584e-07  2.55483e-05
       H -1.00127e-04 -4.97963e-05 -1.99711e-04
       H  2.96637e-05 -1.16437e-04 -4.91696e-07
       H  1.58050e-04  3.64508e-05 -1.64218e-04
7
# CELL(abcABC):   25.29166    25.29166    25.29166    90.00000    90.00000    90.00000  Step:          10  Bead:       0 f_centroid{atomic_unit}  cell{atomic_unit}
       O  3.08093e-04 -3.50646e-04  2.80340e-04
       O -3.77027e-04  3.63501e-04  1.51891e-04
       H -9.92216e-05  6.21512e-05 -1.59407e-04
       H -9.76002e-06  2.06057e-06  5.47274e-05
       H -1.51033e-05 -1.70165e-04 -1.04569e-04
       H  1.42674e-04 -7.07843e-05 -1.16712e-04
       H  4.77840e-05  1.64295e-04 -1.06600e-04
