7
# CELL(abcABC):   25.29166    25.29166    25.29166    90.00000    90.00000    90.00000  Step:           0  Bead:       0 f_centroid{atomic_unit}  cell{atomic_unit}
       O  1.81782e-03  2.94126e-03 -2.50671e-03
       O -9.85165e-04 -3.13301e-03 -2.76220e-03
       H  1.96107e-03  2.46574e-03  5.79977e-03
       H -1.56524e-04  3.14017e-05  1.02516e-03
       H -2.23501e-03  5.02979e-03 -3.90609e-03
       H -3.66372e-03 -2.09913e-03  5.06836e-03
       H  3.26160e-03 -5.23500e-03 -2.71833e-03
7
# CELL(abcABC):   25.29166    25.29166    25.29166    90.00000    90.00000    90.00000  Step:           1  Bead:       0 f_centroid{atomic_unit}  cell{atomic_unit}
       O  4.37390e-03  1.25735e-03 -5.63209e-04
       O -4.00535e-03 -1.34350e-03 -1.80606e-03
       H  8.08235e-04  1.28723e-03  2.62242e-03
       H -1.26109e-04  2.42522e-05  8.22895e-04
       H -9.86407e-04  2.26030e-03 -1.96726e-03
       H -1.57985e-03 -1.11561e-03  2.32524e-03
       H  1.51357e-03 -2.36927e-03 -1.43379e-03
7
# CELL(abcABC):   25.29166    25.29166    25.29166    90.00000    90.00000    90.00000  Step:           2  Bead:       0 f_centroid{atomic_unit}  cell{atomic_unit}
       O  4.29073e-03 -2.84740e-04  7.58493e-04
       O -4.32372e-03  2.85821e-04 -6.17209e-04
       H  1.32266e-04 -2.06218e-04 -4.36545e-04
       H -3.20966e-05  5.65592e-06  2.35190e-04
       H -1.72744e-04 -5.29602e-04  2.70047e-04
       H  1.73713e-05  1.84519e-04 -4.74162e-04
       H  8.89841e-05  5.43299e-04  2.66211e-04
7
# CELL(abcABC):   25.29166    25.29166    25.29166    90.00000    90.00000    90.00000  Step:           3  Bead:       0 f_centroid{atomic_unit}  cell{atomic_unit}
       O  1.86369e-03 -2.71723e-04  5.11083e-04
       O -1.93633e-03  2.82100e-04 -1.10734e-04
       H  4.12192e-04 -6.51310e-04 -7.80666e-04
       H  3.22146e-05 -9.31806e-06 -1.78166e-04
       H -4.66295e-04 -8.01558e-04  7.10362e-04
       H -1.41698e-04  6.02927e-04 -9.11376e-04
       H  2.35180e-04  8.48226e-04  7.60755e-04
7
# CELL(abcABC):   25.29166    25.29166    25.29166    90.00000    90.00000    90.00000  Step:           4  Bead:       0 f_centroid{atomic_unit}  cell{atomic_unit}
       O  1.63665e-04  1.61492e-05  2.88949e-05
       O -1.67661e-04 -2.46359e-05 -2.99053e-05
       H  7.24583e-04 -5.74060e-04 -3.03143e-04
       H  5.50799e-05 -1.22697e-05 -3.16979e-04
       H -8.03753e-04 -3.76531e-04  4.87171e-04
       H -5.89183e-04  5.50700e-04 -5.45589e-04
       H  6.17126e-04  4.17346e-04  6.81790e-04
7
# CELL(abcABC):   25.29166    25.29166    25.29166    90.00000    90.00000    90.00000  Step:           5  Bead:       0 f_centroid{atomic_unit}  cell{atomic_unit}
       O -5.48212e-04  1.61384e-04 -1.90518e-04
       O  5.76451e-04 -1.72510e-04 -1.48901e-05
       H  8.04241e-04 -4.18646e-04  2.82228e-05
       H  5.38350e-05 -1.19712e-05 -3.22873e-04
       H -9.05993e-04 -6.85318e-05  2.43625e-04
       H -7.70248e-04  4.15695e-04 -2.43666e-04
       H  7.88108e-04  9.39281e-05  4.99581e-04
7
# CELL(abcABC):   25.29166    25.29166    25.29166    90.00000    90.00000    90.00000  Step:           6  Bead:       0 f_centroid{atomic_unit}  cell{atomic_unit}
       O -1.20219e-03  2.13541e-04 -3.63228e-04
       O  1.25402e-03 -2.33925e-04  3.50994e-05
       H  7.07789e-04 -8.54456e-05  4.41429e-04
       H  3.95616e-05 -9.71312e-06 -2.42481e-04
       H -8.37170e-04  3.19898e-04 -1.74414e-04
       H -8.03833e-04  1.10278e-04  1.98307e-04
       H  8.43984e-04 -3.17100e-04  1.08668e-04
7
# CELL(abcABC):   25.29166    25.29166    25.29166    90.00000    90.00000    90.00000  Step:           7  Bead:       0 f_centroid{atomic_unit}  cell{atomic_unit}
       O -9.57252e-04  3.20327e-05 -1.94089e-04
       O  9.73239e-04 -3.50113e-05  1.04055e-04
       H  3.76541e-04  1.30072e-04  4.20306e-04
       H  1.71624e-05 -4.77058e-06 -1.08591e-04
       H -5.21470e-04  3.28194e-04 -3.56863e-04
       H -4.89139e-04 -1.05521e-04  2.95233e-04
       H  6.01499e-04 -3.43604e-04 -1.60114e-04
7
# CELL(abcABC):   25.29166    25.29166    25.29166    90.00000    90.00000    90.00000  Step:           8  Bead:       0 f_centroid{atomic_unit}  cell{atomic_unit}
       O -3.12993e-04 -2.05392e-04  7.28193e-05
       O  2.78337e-04  2.09984e-04  1.52430e-04
       H  8.16286e-05  1.58664e-04  1.55141e-04
       H  2.54659e-06 -1.52056e-06 -9.44738e-06
       H -2.18375e-04  9.99350e-05 -2.93427e-04
       H -1.26525e-04 -1.48216e-04  1.29924e-04
       H  2.96568e-04 -1.16540e-04 -2.06069e-04
7
# CELL(abcABC):   25.29166    25.29166    25.29166    90.00000    90.00000    90.00000  Step:           9  Bead:       0 f_centroid{atomic_unit}  cell{atomic_unit}
       O  3.50383e-05 -2.98738e-04  2.00434e-04
       O -9.09012e-05  3.12380e-04  1.58805e-04
       H -2.58055e-05  1.17369e-04 -1.92713e-05
       H -3.24718e-06  2.14584e-07  2.55483e-05
       H -1.00127e-04 -4.97963e-05 -1.99711e-04
       H  2.96637e-05 -1.16437e-04 -4.91696e-07
       H  1.58050e-04  3.64508e-05 -1.64218e-04
7
# CELL(abcABC):   25.29166    25.29166    25.29166    90.00000    90.00000    90.00000  Step:          10  Bead:       0 f_centroid{atomic_unit}  cell{atomic_unit}
       O  3.08093e-04 -3.50646e-04  2.80340e-04
       O -3.77027e-04  3.63501e-04  1.51891e-04
       H -9.92216e-05  6.21512e-05 -1.59407e-04
       H -9.76002e-06  2.06057e-06  5.47274e-05
       H -1.51033e-05 -1.70165e-04 -1.04569e-04
       H  1.42674e-04 -7.07843e-05 -1.16712e-04
       H  4.77840e-05  1.64295e-04 -1.06600e-04
7
# CELL(abcABC):   25.29166    25.29166    25.29166    90.00000    90.00000    90.00000  Step:          11  Bead:       0 f_centroid{atomic_unit}  cell{atomic_unit}
       O  5.76655e-04 -3.52313e-04  3.24918e-04
       O -6.46423e-04  3.66693e-04  1.09743e-04
       H -1.67844e-04 -2.06029e-05 -3.07051e-04
       H -1.57286e-05  2.29363e-06  1.04318e-04
       H  7.80460e-05 -2.91963e-04  2.54659e-05
       H  2.55231e-04  4.62137e-06 -2.42238e-04
       H -7.82833e-05  2.91148e-04 -1.81416e-05
7
# CELL(abcABC):   25.29166    25.29166    25.29166    90.00000    90.00000    90.00000  Step:          12  Bead:       0 f_centroid{atomic_unit}  cell{atomic_unit}
       O  5.76031e-04 -2.40071e-04  2.42738e-04
       O -6.19843e-04  2.47249e-04  4.10083e-05
       H -1.64947e-04 -8.34248e-05 -3.14365e-04
       H -2.28411e-05  4.13820e-06  1.45708e-04
       H  1.05587e-04 -2.81530e-04  9.37163e-05
       H  2.54806e-04  6.41009e-05 -2.49831e-04
       H -1.25426e-04  2.88769e-04  4.13920e-05
7
# CELL(abcABC):   25.29166    25.29166    25.29166    90.00000    90.00000    90.00000  Step:          13  Bead:       0 f_centroid{atomic_unit}  cell{atomic_unit}
       O  2.76789e-04 -7.30353e-05  7.22977e-05
       O -2.87025e-04  7.52323e-05 -1.71866e-05
       H -8.51202e-05 -7.69830e-05 -1.60861e-04
       H -2.43318e-05  5.48681e-06  1.46127e-04
       H  5.14532e-05 -1.40837e-04  5.81835e-05
       H  1.30886e-04  6.61686e-05 -1.30657e-04
       H -6.31658e-05  1.44117e-04  3.18593e-05
7
# CELL(abcABC):   25.29166    25.29166    25.29166    90.00000    90.00000    90.00000  Step:          14  Bead:       0 f_centroid{atomic_unit}  cell{atomic_unit}
       O  4.24819e-05  3.38503e-06 -1.47537e-05
       O -3.60586e-05 -2.28084e-06 -2.62560e-05
       H -2.51987e-05 -4.39869e-05 -3.97307e-05
       H -2.04793e-05  5.10738e-06  1.15925e-04
       H -7.20490e-07 -3.69042e-05 -2.43290e-06
       H  3.44798e-05  3.92987e-05 -3.14898e-05
       H  2.99849e-06  3.47242e-05 -3.25997e-06
7
# CELL(abcABC):   25.29166    25.29166    25.29166    90.00000    90.00000    90.00000  Step:          15  Bead:       0 f_centroid{atomic_unit}  cell{atomic_unit}
       O -2.74568e-05  1.45207e-05 -3.02038e-05
       O  3.56096e-05 -1.64235e-05 -1.61364e-05
       H -1.77494e-06 -2.59263e-05  2.34479e-06
       H -1.47210e-05  3.13918e-06  9.16955e-05
       H -1.70616e-05 -3.55982e-06 -2.85468e-05
       H  1.94404e-06  2.50594e-05  2.45990e-06
       H  2.61252e-05  3.66498e-06 -2.04807e-05
7
# CELL(abcABC):   25.29166    25.29166    25.29166    90.00000    90.00000    90.00000  Step:          16  Bead:       0 f_centroid{atomic_unit}  cell{atomic_unit}
       O -5.10099e-05  1.95328e-05 -2.93952e-05
       O  5.63631e-05 -1.95811e-05 -1.00997e-05
       H  9.42322e-06 -1.54301e-05  2.16843e-05
       H -1.13488e-05  2.17000e-06  6.67413e-05
       H -1.57556e-05  6.92211e-06 -3.72225e-05
       H -1.63325e-05  1.60810e-05  1.76399e-05
       H  2.87955e-05 -8.27498e-06 -2.93653e-05
7
# CELL(abcABC):   25.29166    25.29166    25.29166    90.00000    90.00000    90.00000  Step:          17  Bead:       0 f_centroid{atomic_unit}  cell{atomic_unit}
       O -5.03135e-05  1.67873e-05 -8.21103e-06
       O  5.17943e-05 -1.54344e-05  9.79838e-06
       H  2.08416e-05 -5.23954e-06  3.22018e-05
       H -3.91935e-06  3.55271e-08  1.61634e-05
       H -4.09557e-06  4.77058e-06 -3.91324e-05
       H -3.24462e-05  6.27978e-06  2.25086e-05
       H  1.54046e-05 -7.07843e-06 -3.32250e-05
7
# CELL(abcABC):   25.29166    25.29166    25.29166    90.00000    90.00000    90.00000  Step:          18  Bead:       0 f_centroid{atomic_unit}  cell{atomic_unit}
       O -2.56065e-05  1.31919e-05  4.09699e-06
       O  2.35261e-05 -1.20082e-05  1.50678e-05
       H  2.32163e-05 -6.96474e-06  2.89674e-05
       H -1.32161e-07 -1.24629e-06 -7.56444e-06
       H  1.14170e-05 -6.96900e-06 -2.80153e-05
       H -3.00474e-05  8.90878e-06  1.69763e-05
       H -2.22826e-06  4.51905e-06 -3.00233e-05
7
# CELL(abcABC):   25.29166    25.29166    25.29166    90.00000    90.00000    90.00000  Step:          19  Bead:       0 f_centroid{atomic_unit}  cell{atomic_unit}
       O  5.50386e-06  6.53699e-06  2.05404e-05
       O -9.09921e-06 -5.28786e-06  1.59147e-05
       H  1.83178e-05 -1.26178e-05  1.29631e-05
       H  1.23777e-06 -1.88862e-06 -1.65784e-05
       H  2.40505e-05 -2.19984e-05 -1.56987e-05
       H -2.10662e-05  1.31905e-05  6.24283e-06
       H -1.83391e-05  2.06626e-05 -2.43674e-05
7
# CELL(abcABC):   25.29166    25.29166    25.29166    90.00000    90.00000    90.00000  Step:          20  Bead:       0 f_centroid{atomic_unit}  cell{atomic_unit}
       O  3.07438e-05  3.38787e-06  2.66326e-05
       O -3.75636e-05 -1.49498e-06  1.47423e-05
       H  1.27542e-05 -1.57996e-05  1.47651e-06
       H  3.80851e-06 -4.74643e-07 -2.03428e-05
       H  3.57318e-05 -3.48038e-05 -2.55653e-06
       H -1.28367e-05  1.65286e-05 -2.10605e-06
       H -2.91990e-05  3.27972e-05 -1.70033e-05
7
# CELL(abcABC):   25.29166    25.29166    25.29166    90.00000    90.00000    90.00000  Step:          21  Bead:       0 f_centroid{atomic_unit}  cell{atomic_unit}
       O  5.79291e-05 -4.31299e-06  3.46049e-05
       O -6.81268e-05  2.92459e-06  1.65741e-05
       H  3.84830e-06 -2.31921e-05 -1.39565e-05
       H  3.06954e-06 -1.97531e-07 -1.98867e-05
       H  4.13905e-05 -4.70237e-05  6.91216e-06
       H  1.23777e-06  2.30770e-05 -1.65983e-05
       H -4.02281e-05  4.80171e-05 -6.96900e-06
7
# CELL(abcABC):   25.29166    25.29166    25.29166    90.00000    90.00000    90.00000  Step:          22  Bead:       0 f_centroid{atomic_unit}  cell{atomic_unit}
       O  1.20122e-04 -6.82405e-06  5.57762e-05
       O -1.35299e-04  1.12109e-05  6.54978e-06
       H -1.75049e-05 -4.44672e-05 -5.22235e-05
       H  6.41904e-06  2.05915e-06 -2.06427e-05
       H  6.02498e-05 -7.55961e-05  3.88738e-05
       H  3.22416e-05  3.76716e-05 -4.04810e-05
       H -6.51681e-05  7.59073e-05  1.23450e-05
7
# CELL(abcABC):   25.29166    25.29166    25.29166    90.00000    90.00000    90.00000  Step:          23  Bead:       0 f_centroid{atomic_unit}  cell{atomic_unit}
       O  1.50712e-04 -2.47013e-05  5.70310e-05
       O -1.73193e-04  1.41355e-05  4.31868e-06
       H -3.35604e-05 -5.11108e-05 -6.70013e-05
       H  8.84341e-06  4.65405e-06 -2.10989e-05
       H  6.59597e-05 -8.68440e-05  5.37327e-05
       H  5.63276e-05  4.67978e-05 -5.43636e-05
       H -7.65368e-05  9.89942e-05  2.80437e-05
7
# CELL(abcABC):   25.29166    25.29166    25.29166    90.00000    90.00000    90.00000  Step:          24  Bead:       0 f_centroid{atomic_unit}  cell{atomic_unit}
       O  1.35788e-04 -2.72237e-05  5.07796e-05
       O -1.61782e-04  1.38087e-05 -6.97895e-06
       H -4.79375e-05 -5.04031e-05 -6.42217e-05
       H  1.54728e-05  5.14859e-06 -2.46374e-05
       H  4.05066e-05 -7.30509e-05  5.18668e-05
       H  6.98478e-05  4.45453e-05 -4.02380e-05
       H -5.28061e-05  8.51230e-05  3.45679e-05
7
# CELL(abcABC):   25.29166    25.29166    25.29166    90.00000    90.00000    90.00000  Step:          25  Bead:       0 f_centroid{atomic_unit}  cell{atomic_unit}
       O  6.46722e-05 -2.20510e-05  2.06100e-05
       O -8.43528e-05  4.87290e-06 -9.98170e-06
       H -3.85697e-05 -3.18906e-05 -2.23196e-05
       H  1.43643e-05  5.49960e-06 -2.04892e-05
       H  1.21858e-05 -3.81576e-05  2.31864e-05
       H  5.08408e-05  3.22487e-05 -8.30624e-06
       H -1.99492e-05  4.89237e-05  1.90056e-05
7
# CELL(abcABC):   25.29166    25.29166    25.29166    90.00000    90.00000    90.00000  Step:          26  Bead:       0 f_centroid{atomic_unit}  cell{atomic_unit}
       O -9.23706e-06 -3.27418e-06  7.94387e-07
       O -1.01039e-06 -4.34142e-06 -1.06596e-05
       H -2.66013e-05 -1.59645e-05  1.19101e-05
       H  1.05430e-05  2.56932e-06 -1.63624e-05
       H -1.42023e-05 -4.89706e-06 -6.58247e-06
       H  2.23693e-05  1.92117e-05  2.38117e-05
       H  1.53065e-05  7.59997e-06 -3.45608e-06
7
# CELL(abcABC):   25.29166    25.29166    25.29166    90.00000    90.00000    90.00000  Step:          27  Bead:       0 f_centroid{atomic_unit}  cell{atomic_unit}
       O -1.55211e-05 -2.98996e-06 -4.56595e-06
       O  1.25823e-05 -7.71223e-06 -8.76383e-06
       H -2.23594e-05 -1.21005e-05  1.93907e-05
       H  1.09495e-05  2.16005e-06 -1.93680e-05
       H -1.99933e-05  3.07097e-06 -1.02105e-05
       H  1.96181e-05  1.67844e-05  2.85283e-05
       H  1.96508e-05  1.01039e-06 -5.56071e-06
7
# CELL(abcABC):   25.29166    25.29166    25.29166    90.00000    90.00000    90.00000  Step:          28  Bead:       0 f_centroid{atomic_unit}  cell{atomic_unit}
       O -6.60563e-05  1.56248e-05 -3.35049e-05
       O  7.84070e-05 -2.39723e-05  3.29123e-06
       H  2.30642e-06  7.76481e-06  7.01704e-05
       H  2.26521e-06 -6.05809e-06 -3.11545e-05
       H -4.03858e-05  2.89603e-05 -2.86889e-05
       H -1.32047e-05  9.42748e-06  4.42185e-05
       H  3.88852e-05 -3.46176e-05 -2.38657e-05
7
# CELL(abcABC):   25.29166    25.29166    25.29166    90.00000    90.00000    90.00000  Step:          29  Bead:       0 f_centroid{atomic_unit}  cell{atomic_unit}
       O -6.35836e-05  2.49386e-05 -3.36343e-05
       O  9.20480e-05 -1.72847e-05  3.00560e-06
       H  1.81473e-06  1.33156e-05  7.67869e-05
       H -6.55120e-06 -1.15733e-05 -3.39227e-05
       H -4.19774e-05  2.78703e-05 -2.86533e-05
       H -2.25768e-05  7.26743e-06  4.65107e-05
       H  3.87772e-05 -4.42355e-05 -3.14415e-05
7
# CELL(abcABC):   25.29166    25.29166    25.29166    90.00000    90.00000    90.00000  Step:          30  Bead:       0 f_centroid{atomic_unit}  cell{atomic_unit}
       O  4.46249e-05  6.68777e-05 -3.25471e-05
       O  1.13508e-04  2.35488e-05  3.69226e-05
       H -1.16430e-05  2.62844e-05  7.92738e-05
       H -7.02954e-05 -6.05525e-05 -3.94891e-05
       H -4.11021e-05 -9.30100e-06  1.01608e-06
       H -3.52713e-05  1.61236e-05 -3.98899e-06
       H  6.73595e-07 -6.27523e-05 -4.10651e-05
7
# CELL(abcABC):   25.29166    25.29166    25.29166    90.00000    90.00000    90.00000  Step:          31  Bead:       0 f_centroid{atomic_unit}  cell{atomic_unit}
       O  5.82986e-05  4.47415e-05 -2.30074e-05
       O  6.88232e-05  3.64665e-05  3.18025e-05
       H -2.38188e-05  1.18987e-05  4.74685e-05
       H -6.12573e-05 -5.07725e-05 -2.40973e-05
       H -2.67775e-05 -2.60655e-05  9.04379e-06
       H -9.70459e-06  1.71525e-05 -1.46244e-05
       H -5.68008e-06 -3.45253e-05 -2.35147e-05
7
# CELL(abcABC):   25.29166    25.29166    25.29166    90.00000    90.00000    90.00000  Step:          32  Bead:       0 f_centroid{atomic_unit}  cell{atomic_unit}
       O  7.11765e-05  1.29091e-05 -9.16884e-06
       O -1.70601e-05  4.72070e-05  2.87770e-05
       H -3.74911e-05 -1.99833e-05 -9.71454e-06
       H -3.97378e-05 -2.54460e-05 -4.33573e-06
       H  5.99556e-06 -3.84560e-05  8.46541e-06
       H  3.31681e-05  9.76854e-06 -2.59931e-05
       H -1.21517e-05  1.42265e-05  1.13374e-05
7
# CELL(abcABC):   25.29166    25.29166    25.29166    90.00000    90.00000    90.00000  Step:          33  Bead:       0 f_centroid{atomic_unit}  cell{atomic_unit}
       O  6.01133e-05  3.55271e-08 -1.37476e-05
       O -4.64212e-05  4.69356e-05  2.72024e-05
       H -3.64992e-05 -3.87985e-05 -3.68999e-05
       H -2.95145e-05 -8.08171e-06  8.35030e-06
       H  1.87768e-05 -3.43690e-05  3.23723e-06
       H  4.26425e-05 -1.80478e-06 -2.38501e-05
       H -8.92015e-06  3.69710e-05  3.54476e-05
7
# CELL(abcABC):   25.29166    25.29166    25.29166    90.00000    90.00000    90.00000  Step:          34  Bead:       0 f_centroid{atomic_unit}  cell{atomic_unit}
       O  2.63498e-05  2.97433e-06 -2.22613e-05
       O -3.65574e-05  3.25556e-05  2.31694e-05
       H -1.85537e-05 -4.08846e-05 -2.91607e-05
       H -1.95470e-05  3.10223e-06  3.50724e-06
       H  1.98582e-05 -1.07121e-05 -1.49640e-05
       H  2.25114e-05 -1.90198e-05  3.16902e-07
       H  5.81650e-06  2.82157e-05  3.91637e-05
7
# CELL(abcABC):   25.29166    25.29166    25.29166    90.00000    90.00000    90.00000  Step:          35  Bead:       0 f_centroid{atomic_unit}  cell{atomic_unit}
       O -1.15477e-05  1.50052e-05 -2.75364e-05
       O -7.21911e-06  1.14099e-05  2.32021e-05
       H -2.02363e-06 -3.25443e-05 -1.01068e-05
       H -1.17467e-05  1.10617e-05 -9.57243e-06
       H  1.52141e-05  1.42990e-05 -2.94648e-05
       H -3.56408e-06 -2.80636e-05  2.27175e-05
       H  1.85011e-05  1.06624e-05  3.22757e-05
7
# CELL(abcABC):   25.29166    25.29166    25.29166    90.00000    90.00000    90.00000  Step:          36  Bead:       0 f_centroid{atomic_unit}  cell{atomic_unit}
       O -3.27248e-05  2.17497e-05 -3.00062e-05
       O  1.94845e-05 -1.98952e-08  1.60910e-05
       H  9.36637e-06 -2.13134e-05  6.81410e-06
       H -8.24940e-06  1.53491e-05 -1.76087e-05
       H  1.19755e-05  2.47567e-05 -3.26040e-05
       H -2.46672e-05 -3.20398e-05  3.75849e-05
       H  2.44825e-05 -8.81784e-06  1.87015e-05
7
# CELL(abcABC):   25.29166    25.29166    25.29166    90.00000    90.00000    90.00000  Step:          37  Bead:       0 f_centroid{atomic_unit}  cell{atomic_unit}
       O -3.51051e-05  1.97446e-05 -2.39652e-05
       O  2.56378e-05 -7.66960e-06  1.24857e-05
       H  1.24800e-05 -7.71365e-06  1.54728e-05
       H -6.94058e-06  1.97218e-05 -1.74666e-05
       H  1.02602e-05  2.46359e-05 -2.72962e-05
       H -3.25215e-05 -2.83563e-05  3.35788e-05
       H  2.34166e-05 -1.86148e-05  5.47260e-06
7
# CELL(abcABC):   25.29166    25.29166    25.29166    90.00000    90.00000    90.00000  Step:          38  Bead:       0 f_centroid{atomic_unit}  cell{atomic_unit}
       O -2.07223e-05  1.01750e-05 -1.29788e-05
       O  2.02533e-05 -1.16430e-05  5.88756e-06
       H  8.79652e-06  4.63274e-07  1.29717e-05
       H -3.80993e-06  1.89743e-05 -9.86802e-06
       H  5.25233e-06  1.12280e-05 -9.48432e-06
       H -2.45322e-05 -1.18462e-05  1.62061e-05
       H  1.67262e-05 -1.63951e-05 -1.24913e-06
7
# CELL(abcABC):   25.29166    25.29166    25.29166    90.00000    90.00000    90.00000  Step:          39  Bead:       0 f_centroid{atomic_unit}  cell{atomic_unit}
       O  2.74412e-06 -1.55183e-06 -8.38440e-08
       O  3.62661e-06 -4.98943e-06  3.85114e-07
       H -6.17177e-06  2.26095e-06  5.30065e-07
       H -3.45466e-06  1.63780e-05  5.27223e-07
       H  5.98845e-06 -3.93925e-06  4.47500e-06
       H -7.99218e-06 -6.55120e-07  2.60059e-07
       H  5.50955e-06 -6.94911e-06 -5.70992e-06
7
# CELL(abcABC):   25.29166    25.29166    25.29166    90.00000    90.00000    90.00000  Step:          40  Bead:       0 f_centroid{atomic_unit}  cell{atomic_unit}
       O  3.68914e-06 -5.20828e-06  1.97247e-06
       O -1.97531e-07 -3.81277e-06  3.41913e-06
       H -4.90417e-06 -3.80851e-07 -2.19842e-06
       H -3.54277e-06  1.38385e-05 -3.13634e-06
       H  4.43805e-06 -6.61800e-06  4.59863e-06
       H -2.72848e-06  2.30358e-06 -5.51523e-06
       H  2.46700e-06 -1.21787e-06 -2.66738e-06
7
# CELL(abcABC):   25.29166    25.29166    25.29166    90.00000    90.00000    90.00000  Step:          41  Bead:       0 f_centroid{atomic_unit}  cell{atomic_unit}
       O  8.87326e-06 -6.32099e-06 -2.03215e-07
       O -8.58051e-06  3.55982e-06  2.19416e-06
       H -5.89466e-06 -3.53140e-06 -5.50955e-06
       H -1.82752e-06  8.15987e-06  1.99805e-06
       H  3.92077e-06 -8.15987e-06  5.82219e-06
       H  3.53850e-06  2.92744e-06 -5.70424e-06
       H  1.23066e-06  5.61613e-06  2.62190e-06
7
# CELL(abcABC):   25.29166    25.29166    25.29166    90.00000    90.00000    90.00000  Step:          42  Bead:       0 f_centroid{atomic_unit}  cell{atomic_unit}
       O  8.06182e-06 -5.08749e-06 -6.49436e-07
       O -6.44320e-06  2.26947e-06  4.38121e-06
       H -4.17515e-06 -1.08429e-06 -3.56124e-06
       H -1.65130e-06  4.16946e-06  1.12692e-06
       H  1.01750e-06 -5.94724e-06  3.39497e-06
       H  4.69527e-06  3.34097e-06 -7.18217e-06
       H -1.10418e-06  5.09459e-06  3.88951e-06
7
# CELL(abcABC):   25.29166    25.29166    25.29166    90.00000    90.00000    90.00000  Step:          43  Bead:       0 f_centroid{atomic_unit}  cell{atomic_unit}
       O  3.73745e-07 -1.74936e-06 -3.15481e-07
       O  4.06430e-07 -1.24487e-06  9.26548e-07
       H -2.32774e-06  2.33058e-07 -1.06155e-06
       H -5.68434e-09  2.20268e-06  8.15703e-07
       H  5.54223e-08 -2.65743e-07  1.16813e-06
       H  2.43290e-06  3.92220e-07 -7.36122e-07
       H  1.01750e-06 -1.91420e-06  1.33582e-07
7
# CELL(abcABC):   25.29166    25.29166    25.29166    90.00000    90.00000    90.00000  Step:          44  Bead:       0 f_centroid{atomic_unit}  cell{atomic_unit}
       O -2.57074e-06  1.97815e-06  6.80700e-07
       O  5.86624e-06 -3.20597e-06 -1.80904e-06
       H  6.18172e-07  1.44098e-06  2.95017e-06
       H  8.69704e-07  2.25100e-06 -1.39551e-06
       H -1.68541e-06  1.94404e-06 -1.35287e-06
       H -6.53131e-06 -1.68683e-06  4.48921e-06
       H  2.89333e-06 -2.99565e-06 -1.61293e-06
7
# CELL(abcABC):   25.29166    25.29166    25.29166    90.00000    90.00000    90.00000  Step:          45  Bead:       0 f_centroid{atomic_unit}  cell{atomic_unit}
       O -1.74083e-06 -5.18696e-07  3.35376e-07
       O  2.56080e-06  5.34328e-07  4.26326e-08
       H  4.60432e-07  4.26326e-09  1.81615e-06
       H  7.84439e-07  2.37890e-06 -2.17426e-07
       H -3.66640e-07  6.36646e-07 -1.15108e-07
       H -2.50111e-06 -5.37170e-07  1.31450e-06
       H  6.99174e-07 -7.81597e-07 -1.22640e-06
7
# CELL(abcABC):   25.29166    25.29166    25.29166    90.00000    90.00000    90.00000  Step:          46  Bead:       0 f_centroid{atomic_unit}  cell{atomic_unit}
       O  2.08047e-06 -2.17426e-07 -1.27187e-06
       O -3.78151e-06 -1.43956e-06  1.97247e-06
       H -2.04636e-07 -3.26850e-08 -5.85487e-07
       H  1.39266e-07 -9.52127e-07  7.53175e-07
       H  4.97380e-08 -8.38440e-07  1.54330e-06
       H  2.89901e-06  3.95488e-06 -2.95728e-06
       H -2.43858e-06  1.19655e-06 -9.37916e-08
7
# CELL(abcABC):   25.29166    25.29166    25.29166    90.00000    90.00000    90.00000  Step:          47  Bead:       0 f_centroid{atomic_unit}  cell{atomic_unit}
       O  2.80380e-06  8.19966e-07 -6.60805e-07
       O -2.92459e-06  1.62004e-07  2.08900e-07
       H  1.98952e-07 -1.74083e-06 -2.31779e-06
       H -4.40536e-08  4.74643e-07 -4.03588e-07
       H -7.38964e-08 -1.03455e-06  9.13758e-07
       H  1.18803e-06  1.10418e-06 -1.17666e-06
       H -1.12692e-06  1.41966e-06  1.67972e-06
7
# CELL(abcABC):   25.29166    25.29166    25.29166    90.00000    90.00000    90.00000  Step:          48  Bead:       0 f_centroid{atomic_unit}  cell{atomic_unit}
       O  9.37916e-08  2.06057e-07  1.23208e-06
       O  2.92175e-06  1.08855e-06 -1.13829e-06
       H -1.16529e-07 -7.13385e-07  1.59304e-06
       H  1.08287e-06  3.24007e-07 -6.72173e-07
       H -6.49436e-07  1.66125e-06 -3.59535e-07
       H -3.24718e-06 -9.05231e-07  2.24247e-06
       H  9.09495e-07 -1.02176e-06 -9.64917e-07
7
# CELL(abcABC):   25.29166    25.29166    25.29166    90.00000    90.00000    90.00000  Step:          49  Bead:       0 f_centroid{atomic_unit}  cell{atomic_unit}
       O -1.21076e-06 -6.93490e-07 -1.07292e-06
       O  1.37703e-06  1.17950e-06 -8.22808e-07
       H  2.70006e-07  2.06057e-07  9.70601e-07
       H  4.34852e-07 -3.76588e-07 -8.81073e-07
       H  3.80851e-07  1.13687e-06 -3.53850e-07
       H -9.25127e-07 -1.31024e-06  1.18376e-06
       H  1.07576e-06 -4.77485e-07  7.95808e-07
7
# CELL(abcABC):   25.29166    25.29166    25.29166    90.00000    90.00000    90.00000  Step:          50  Bead:       0 f_centroid{atomic_unit}  cell{atomic_unit}
       O -2.89901e-07  6.79279e-07  2.41585e-08
       O -1.43530e-06 -6.92069e-07  2.05631e-06
       H -1.20792e-07 -5.45697e-07 -2.68585e-07
       H -9.15179e-07 -2.98428e-07  2.64322e-07
       H -1.32729e-06  4.73221e-07  7.61702e-07
       H  2.47127e-06  3.76588e-07 -2.92886e-06
       H -1.43672e-06  2.33058e-07 -5.40012e-07
7
# CELL(abcABC):   25.29166    25.29166    25.29166    90.00000    90.00000    90.00000  Step:          51  Bead:       0 f_centroid{atomic_unit}  cell{atomic_unit}
       O  2.13163e-08  1.06581e-07 -5.17275e-07
       O -1.11697e-06 -9.96181e-07  5.75540e-07
       H  4.50484e-07  1.38272e-06  1.36424e-07
       H  4.02167e-07  7.36122e-07 -2.52953e-07
       H  1.29887e-06 -6.32383e-07  4.10694e-07
       H  4.68958e-08 -3.80851e-07 -3.26850e-07
       H -1.42109e-06 -2.13163e-07 -3.63798e-07
7
# CELL(abcABC):   25.29166    25.29166    25.29166    90.00000    90.00000    90.00000  Step:          52  Bead:       0 f_centroid{atomic_unit}  cell{atomic_unit}
       O -3.29692e-07 -3.82272e-07 -4.05009e-07
       O  1.49072e-06  1.52056e-06 -1.03881e-06
       H  6.45173e-07 -1.65130e-06  3.35376e-07
       H  8.88178e-07  4.78906e-07  5.65592e-07
       H  3.02691e-07 -8.52651e-08  4.94538e-07
       H -1.29319e-06 -6.46594e-07  1.20508e-06
       H -8.32756e-07  1.02460e-06  6.45173e-07
7
# CELL(abcABC):   25.29166    25.29166    25.29166    90.00000    90.00000    90.00000  Step:          53  Bead:       0 f_centroid{atomic_unit}  cell{atomic_unit}
       O -2.00373e-07  1.74083e-06  9.97602e-07
       O  1.83320e-06  1.94120e-06 -1.83178e-06
       H  1.29319e-07  6.19593e-07  4.03588e-07
       H -7.91545e-07  1.87583e-07  5.22959e-07
       H  1.70530e-08 -2.84217e-08 -4.63274e-07
       H -8.58336e-07 -1.28182e-06  1.12692e-06
       H  9.76286e-07 -7.88702e-07 -1.45377e-06
7
# CELL(abcABC):   25.29166    25.29166    25.29166    90.00000    90.00000    90.00000  Step:          54  Bead:       0 f_centroid{atomic_unit}  cell{atomic_unit}
       O  1.48930e-06 -6.63647e-07 -6.11067e-08
       O -1.89289e-06 -4.02167e-07  1.26050e-06
       H -1.45235e-06 -7.53175e-08 -1.59446e-06
       H  7.67386e-07  8.15703e-07 -6.42331e-07
       H -1.80478e-07 -6.03961e-07 -1.10276e-06
       H  1.86162e-07 -3.53850e-07 -8.32756e-07
       H  9.80549e-07  1.54898e-07 -8.71125e-07
