1
CELL(abcABC):  7.447216 7.447216 7.447216 90.000000 90.000000 90.000000 cell{atomic_unit}  Traj: positions{atomic_unit}   Bead:       0
H -0.0005090972444601614 2.810887522660721e-06 2.5846490277925876e-06
1
CELL(abcABC):  7.447216 7.447216 7.447216 90.000000 90.000000 90.000000 cell{atomic_unit}  Traj: positions{atomic_unit}   Bead:       1
H -0.0005138744482446504 2.846334020417444e-06 2.6177717388702157e-06
1
CELL(abcABC):  7.447216 7.447216 7.447216 90.000000 90.000000 90.000000 cell{atomic_unit}  Traj: positions{atomic_unit}   Bead:       2
H -0.0005234819996440104 2.9179051932672712e-06 2.684697038750481e-06
1
CELL(abcABC):  7.447216 7.447216 7.447216 90.000000 90.000000 90.000000 cell{atomic_unit}  Traj: positions{atomic_unit}   Bead:       3
H -0.0005380264533103175 3.0269420947295306e-06 2.7867740798922436e-06
1
CELL(abcABC):  7.447216 7.447216 7.447216 90.000000 90.000000 90.000000 cell{atomic_unit}  Traj: positions{atomic_unit}   Bead:       4
H -0.0005576682462723143 3.1754138194083554e-06 2.9259922592302752e-06
1
CELL(abcABC):  7.447216 7.447216 7.447216 90.000000 90.000000 90.000000 cell{atomic_unit}  Traj: positions{atomic_unit}   Bead:       5
H -0.0005826222447807373 3.365863860892433e-06 3.1049364706416576e-06
1
CELL(abcABC):  7.447216 7.447216 7.447216 90.000000 90.000000 90.000000 cell{atomic_unit}  Traj: positions{atomic_unit}   Bead:       6
H -0.0006131581612910316 3.6013338511506023e-06 3.3267244969799737e-06
1
CELL(abcABC):  7.447216 7.447216 7.447216 90.000000 90.000000 90.000000 cell{atomic_unit}  Traj: positions{atomic_unit}   Bead:       7
H -0.0006496005464527016 3.8852627464529586e-06 3.5949230868035304e-06
1
CELL(abcABC):  7.447216 7.447216 7.447216 90.000000 90.000000 90.000000 cell{atomic_unit}  Traj: positions{atomic_unit}   Bead:       8
H -0.0006923279512532001 4.221357728570229e-06 3.913438507030233e-06
1
CELL(abcABC):  7.447216 7.447216 7.447216 90.000000 90.000000 90.000000 cell{atomic_unit}  Traj: positions{atomic_unit}   Bead:       9
H -0.0007417707186108262 4.61343153484127e-06 4.286376443955577e-06
1
CELL(abcABC):  7.447216 7.447216 7.447216 90.000000 90.000000 90.000000 cell{atomic_unit}  Traj: positions{atomic_unit}   Bead:       10
H -0.0007984066943874759 5.065200690666979e-06 4.717864924990756e-06
1
CELL(abcABC):  7.447216 7.447216 7.447216 90.000000 90.000000 90.000000 cell{atomic_unit}  Traj: positions{atomic_unit}   Bead:       11
H -0.0008627539369126597 5.5800386117397235e-06 5.211832856235106e-06
1
CELL(abcABC):  7.447216 7.447216 7.447216 90.000000 90.000000 90.000000 cell{atomic_unit}  Traj: positions{atomic_unit}   Bead:       12
H -0.0009353592428856233 6.160677325198596e-06 5.771735715409233e-06
1
CELL(abcABC):  7.447216 7.447216 7.447216 90.000000 90.000000 90.000000 cell{atomic_unit}  Traj: positions{atomic_unit}   Bead:       13
H -0.0010167809870510805 6.808851878774178e-06 6.4002191957928826e-06
1
CELL(abcABC):  7.447216 7.447216 7.447216 90.000000 90.000000 90.000000 cell{atomic_unit}  Traj: positions{atomic_unit}   Bead:       14
H -0.0011075643854926368 7.524882550038377e-06 7.098711345314856e-06
1
CELL(abcABC):  7.447216 7.447216 7.447216 90.000000 90.000000 90.000000 cell{atomic_unit}  Traj: positions{atomic_unit}   Bead:       15
H -0.0012082068326664838 8.307192087294067e-06 7.866934408214277e-06
1
CELL(abcABC):  7.447216 7.447216 7.447216 90.000000 90.000000 90.000000 cell{atomic_unit}  Traj: positions{atomic_unit}   Bead:       16
H -0.0013191104316383742 9.151758405665665e-06 8.702329365433131e-06
1
CELL(abcABC):  7.447216 7.447216 7.447216 90.000000 90.000000 90.000000 cell{atomic_unit}  Traj: positions{atomic_unit}   Bead:       17
H -0.0014405182478076772 1.0051507270246076e-05 9.59938952867327e-06
1
CELL(abcABC):  7.447216 7.447216 7.447216 90.000000 90.000000 90.000000 cell{atomic_unit}  Traj: positions{atomic_unit}   Bead:       18
H -0.0015724302006675079 1.099565490403618e-05 1.0548905626702693e-05
1
CELL(abcABC):  7.447216 7.447216 7.447216 90.000000 90.000000 90.000000 cell{atomic_unit}  Traj: positions{atomic_unit}   Bead:       19
H -0.0017144939293003477 1.1969016249675876e-05 1.1537134122557088e-05
1
CELL(abcABC):  7.447216 7.447216 7.447216 90.000000 90.000000 90.000000 cell{atomic_unit}  Traj: positions{atomic_unit}   Bead:       20
H -0.0018658655381329516 1.2951347669162557e-05 1.2544926807879254e-05
1
CELL(abcABC):  7.447216 7.447216 7.447216 90.000000 90.000000 90.000000 cell{atomic_unit}  Traj: positions{atomic_unit}   Bead:       21
H -0.0020250350363600696 1.3916910251887994e-05 1.354691447334432e-05
1
CELL(abcABC):  7.447216 7.447216 7.447216 90.000000 90.000000 90.000000 cell{atomic_unit}  Traj: positions{atomic_unit}   Bead:       22
H -0.002189611820499473 1.4834049391229812e-05 1.4510753812549799e-05
1
CELL(abcABC):  7.447216 7.447216 7.447216 90.000000 90.000000 90.000000 cell{atomic_unit}  Traj: positions{atomic_unit}   Bead:       23
H -0.002356067153971223 1.5664975331088392e-05 1.5396574755672102e-05
1
CELL(abcABC):  7.447216 7.447216 7.447216 90.000000 90.000000 90.000000 cell{atomic_unit}  Traj: positions{atomic_unit}   Bead:       24
H -0.0025194339000411885 1.6365834551123567e-05 1.6156780870371e-05
1
CELL(abcABC):  7.447216 7.447216 7.447216 90.000000 90.000000 90.000000 cell{atomic_unit}  Traj: positions{atomic_unit}   Bead:       25
H -0.0026729696196196363 1.688713398321352e-05 1.6736385295856178e-05
1
CELL(abcABC):  7.447216 7.447216 7.447216 90.000000 90.000000 90.000000 cell{atomic_unit}  Traj: positions{atomic_unit}   Bead:       26
H -0.0028077986372493364 1.717435438685565e-05 1.7074050246678464e-05
1
CELL(abcABC):  7.447216 7.447216 7.447216 90.000000 90.000000 90.000000 cell{atomic_unit}  Traj: positions{atomic_unit}   Bead:       27
H -0.0029125630460118436 1.7168827326738648e-05 1.7104052206534788e-05
1
CELL(abcABC):  7.447216 7.447216 7.447216 90.000000 90.000000 90.000000 cell{atomic_unit}  Traj: positions{atomic_unit}   Bead:       28
H -0.0029731330341508507 1.680898964543878e-05 1.675939965122896e-05
1
CELL(abcABC):  7.447216 7.447216 7.447216 90.000000 90.000000 90.000000 cell{atomic_unit}  Traj: positions{atomic_unit}   Bead:       29
H -0.002972594122000254 1.6031463515166783e-05 1.597612780609626e-05
1
CELL(abcABC):  7.447216 7.447216 7.447216 90.000000 90.000000 90.000000 cell{atomic_unit}  Traj: positions{atomic_unit}   Bead:       30
H -0.0028968273414535874 1.4771824609763408e-05 1.469859415147801e-05
1
CELL(abcABC):  7.447216 7.447216 7.447216 90.000000 90.000000 90.000000 cell{atomic_unit}  Traj: positions{atomic_unit}   Bead:       31
H -0.0027398299556359025 1.2972367643302526e-05 1.2884711195192958e-05
1
CELL(abcABC):  7.447216 7.447216 7.447216 90.000000 90.000000 90.000000 cell{atomic_unit}  Traj: positions{atomic_unit}   Bead:       32
H -0.0025011332574879446 1.059782367155466e-05 1.0512449482451607e-05
1
CELL(abcABC):  7.447216 7.447216 7.447216 90.000000 90.000000 90.000000 cell{atomic_unit}  Traj: positions{atomic_unit}   Bead:       33
H -0.00218684066026452 7.652202874792514e-06 7.588673160535707e-06
1
CELL(abcABC):  7.447216 7.447216 7.447216 90.000000 90.000000 90.000000 cell{atomic_unit}  Traj: positions{atomic_unit}   Bead:       34
H -0.0018072823520440464 4.1916494441172e-06 4.158019467682992e-06
1
CELL(abcABC):  7.447216 7.447216 7.447216 90.000000 90.000000 90.000000 cell{atomic_unit}  Traj: positions{atomic_unit}   Bead:       35
H -0.0013699243219328417 3.1344190535158025e-07 3.0338623210799846e-07
1
CELL(abcABC):  7.447216 7.447216 7.447216 90.000000 90.000000 90.000000 cell{atomic_unit}  Traj: positions{atomic_unit}   Bead:       36
H -0.0008851784923852562 -3.873656482874352e-06 -3.865419152032869e-06
1
CELL(abcABC):  7.447216 7.447216 7.447216 90.000000 90.000000 90.000000 cell{atomic_unit}  Traj: positions{atomic_unit}   Bead:       37
H -0.0003729822497652182 -8.24946734775483e-06 -8.221424868351894e-06
1
CELL(abcABC):  7.447216 7.447216 7.447216 90.000000 90.000000 90.000000 cell{atomic_unit}  Traj: positions{atomic_unit}   Bead:       38
H 0.0001401427250924134 -1.2667321334878993e-05 -1.2626554403764676e-05
1
CELL(abcABC):  7.447216 7.447216 7.447216 90.000000 90.000000 90.000000 cell{atomic_unit}  Traj: positions{atomic_unit}   Bead:       39
H 0.0006331039947221361 -1.697699768318321e-05 -1.694346716672582e-05
1
CELL(abcABC):  7.447216 7.447216 7.447216 90.000000 90.000000 90.000000 cell{atomic_unit}  Traj: positions{atomic_unit}   Bead:       40
H 0.0010944881042054533 -2.106276098933945e-05 -2.105108716456132e-05
1
CELL(abcABC):  7.447216 7.447216 7.447216 90.000000 90.000000 90.000000 cell{atomic_unit}  Traj: positions{atomic_unit}   Bead:       41
H 0.0015146851710132352 -2.484870992201139e-05 -2.485461818524195e-05
1
CELL(abcABC):  7.447216 7.447216 7.447216 90.000000 90.000000 90.000000 cell{atomic_unit}  Traj: positions{atomic_unit}   Bead:       42
H 0.0018808580857437372 -2.8280445549957785e-05 -2.828891117929853e-05
1
CELL(abcABC):  7.447216 7.447216 7.447216 90.000000 90.000000 90.000000 cell{atomic_unit}  Traj: positions{atomic_unit}   Bead:       43
H 0.0021804094219102757 -3.1318077935536226e-05 -3.1317502373166774e-05
1
CELL(abcABC):  7.447216 7.447216 7.447216 90.000000 90.000000 90.000000 cell{atomic_unit}  Traj: positions{atomic_unit}   Bead:       44
H 0.0024065691869618565 -3.3939547360750354e-05 -3.392793069771182e-05
1
CELL(abcABC):  7.447216 7.447216 7.447216 90.000000 90.000000 90.000000 cell{atomic_unit}  Traj: positions{atomic_unit}   Bead:       45
H 0.0025658735949723108 -3.61427958254953e-05 -3.612481162234597e-05
1
CELL(abcABC):  7.447216 7.447216 7.447216 90.000000 90.000000 90.000000 cell{atomic_unit}  Traj: positions{atomic_unit}   Bead:       46
H 0.002669944941825029 -3.7943542460903866e-05 -3.792662952726385e-05
1
CELL(abcABC):  7.447216 7.447216 7.447216 90.000000 90.000000 90.000000 cell{atomic_unit}  Traj: positions{atomic_unit}   Bead:       47
H 0.0027295275444557954 -3.937126916857048e-05 -3.936300339260395e-05
1
CELL(abcABC):  7.447216 7.447216 7.447216 90.000000 90.000000 90.000000 cell{atomic_unit}  Traj: positions{atomic_unit}   Bead:       48
H 0.0027541649781418743 -4.0465342356898805e-05 -4.0471101936481655e-05
1
CELL(abcABC):  7.447216 7.447216 7.447216 90.000000 90.000000 90.000000 cell{atomic_unit}  Traj: positions{atomic_unit}   Bead:       49
H 0.002751788420880334 -4.1271503247118455e-05 -4.1291792869856536e-05
1
CELL(abcABC):  7.447216 7.447216 7.447216 90.000000 90.000000 90.000000 cell{atomic_unit}  Traj: positions{atomic_unit}   Bead:       50
H 0.0027289887520485193 -4.183712212244016e-05 -4.1866482960894674e-05
1
CELL(abcABC):  7.447216 7.447216 7.447216 90.000000 90.000000 90.000000 cell{atomic_unit}  Traj: positions{atomic_unit}   Bead:       51
H 0.002691410253825679 -4.22073378401912e-05 -4.223517812244482e-05
1
CELL(abcABC):  7.447216 7.447216 7.447216 90.000000 90.000000 90.000000 cell{atomic_unit}  Traj: positions{atomic_unit}   Bead:       52
H 0.0026438206803997676 -4.242294495405389e-05 -4.243539885163565e-05
1
CELL(abcABC):  7.447216 7.447216 7.447216 90.000000 90.000000 90.000000 cell{atomic_unit}  Traj: positions{atomic_unit}   Bead:       53
H 0.00259019466098773 -4.251932632796204e-05 -4.250162861529347e-05
1
CELL(abcABC):  7.447216 7.447216 7.447216 90.000000 90.000000 90.000000 cell{atomic_unit}  Traj: positions{atomic_unit}   Bead:       54
H 0.0025338177137093627 -4.252587842433227e-05 -4.246505429005311e-05
1
CELL(abcABC):  7.447216 7.447216 7.447216 90.000000 90.000000 90.000000 cell{atomic_unit}  Traj: positions{atomic_unit}   Bead:       55
H 0.002477512764741972 -4.246588289127768e-05 -4.235350316809128e-05
1
CELL(abcABC):  7.447216 7.447216 7.447216 90.000000 90.000000 90.000000 cell{atomic_unit}  Traj: positions{atomic_unit}   Bead:       56
H 0.0024235840761749746 -4.2358812124774795e-05 -4.219182888113094e-05
1
CELL(abcABC):  7.447216 7.447216 7.447216 90.000000 90.000000 90.000000 cell{atomic_unit}  Traj: positions{atomic_unit}   Bead:       57
H 0.002373763893299763 -4.22221608009257e-05 -4.2002142677919964e-05
1
CELL(abcABC):  7.447216 7.447216 7.447216 90.000000 90.000000 90.000000 cell{atomic_unit}  Traj: positions{atomic_unit}   Bead:       58
H 0.002329332148325764 -4.207196242934077e-05 -4.180381698005205e-05
1
CELL(abcABC):  7.447216 7.447216 7.447216 90.000000 90.000000 90.000000 cell{atomic_unit}  Traj: positions{atomic_unit}   Bead:       59
H 0.0022912189617263555 -4.192272593040292e-05 -4.161343763469145e-05
1
CELL(abcABC):  7.447216 7.447216 7.447216 90.000000 90.000000 90.000000 cell{atomic_unit}  Traj: positions{atomic_unit}   Bead:       60
H 0.0022600869118370487 -4.178715843411493e-05 -4.144477289942053e-05
1
CELL(abcABC):  7.447216 7.447216 7.447216 90.000000 90.000000 90.000000 cell{atomic_unit}  Traj: positions{atomic_unit}   Bead:       61
H 0.0022363953457975017 -4.1675848274170595e-05 -4.130877476735903e-05
1
CELL(abcABC):  7.447216 7.447216 7.447216 90.000000 90.000000 90.000000 cell{atomic_unit}  Traj: positions{atomic_unit}   Bead:       62
H 0.002220448921073606 -4.159698478339273e-05 -4.121360561477162e-05
1
CELL(abcABC):  7.447216 7.447216 7.447216 90.000000 90.000000 90.000000 cell{atomic_unit}  Traj: positions{atomic_unit}   Bead:       63
H 0.002212432270452029 -4.155614351848922e-05 -4.116467554662434e-05
