1
CELL(abcABC):  7.447216 7.447216 7.447216 90.000000 90.000000 90.000000 cell{atomic_unit}  Traj: positions{atomic_unit}   Bead:       0
H -0.0005058430728231948 2.8396252670814026e-06 2.6156385384944002e-06
1
CELL(abcABC):  7.447216 7.447216 7.447216 90.000000 90.000000 90.000000 cell{atomic_unit}  Traj: positions{atomic_unit}   Bead:       1
H -0.0005105814920321858 2.875417521150239e-06 2.649137204329484e-06
1
CELL(abcABC):  7.447216 7.447216 7.447216 90.000000 90.000000 90.000000 cell{atomic_unit}  Traj: positions{atomic_unit}   Bead:       2
H -0.0005201110751951233 2.94763728010998e-06 2.7167707992616536e-06
1
CELL(abcABC):  7.447216 7.447216 7.447216 90.000000 90.000000 90.000000 cell{atomic_unit}  Traj: positions{atomic_unit}   Bead:       3
H -0.0005345375872916964 3.057540375197849e-06 2.819801293276899e-06
1
CELL(abcABC):  7.447216 7.447216 7.447216 90.000000 90.000000 90.000000 cell{atomic_unit}  Traj: positions{atomic_unit}   Bead:       4
H -0.0005540203034200945 3.206970882098131e-06 2.9600899534543334e-06
1
CELL(abcABC):  7.447216 7.447216 7.447216 90.000000 90.000000 90.000000 cell{atomic_unit}  Traj: positions{atomic_unit}   Bead:       5
H -0.0005787725865475763 3.398311053873759e-06 3.14005632225847e-06
1
CELL(abcABC):  7.447216 7.447216 7.447216 90.000000 90.000000 90.000000 cell{atomic_unit}  Traj: positions{atomic_unit}   Bead:       6
H -0.0006090623523038444 3.6344102476831527e-06 3.362620412638585e-06
1
CELL(abcABC):  7.447216 7.447216 7.447216 90.000000 90.000000 90.000000 cell{atomic_unit}  Traj: positions{atomic_unit}   Bead:       7
H -0.0006452121318568563 3.918490486124386e-06 3.6311247927888807e-06
1
CELL(abcABC):  7.447216 7.447216 7.447216 90.000000 90.000000 90.000000 cell{atomic_unit}  Traj: positions{atomic_unit}   Bead:       8
H -0.0006875983363840162 4.2540248337982574e-06 3.949232405603148e-06
1
CELL(abcABC):  7.447216 7.447216 7.447216 90.000000 90.000000 90.000000 cell{atomic_unit}  Traj: positions{atomic_unit}   Bead:       9
H -0.0007366491934521192 4.644583472993496e-06 4.320795004330634e-06
1
CELL(abcABC):  7.447216 7.447216 7.447216 90.000000 90.000000 90.000000 cell{atomic_unit}  Traj: positions{atomic_unit}   Bead:       10
H -0.0007928406595068623 5.0936419449339296e-06 4.749685922339179e-06
1
CELL(abcABC):  7.447216 7.447216 7.447216 90.000000 90.000000 90.000000 cell{atomic_unit}  Traj: positions{atomic_unit}   Bead:       11
H -0.0008566894056661197 5.604345500868291e-06 5.239589812545487e-06
1
CELL(abcABC):  7.447216 7.447216 7.447216 90.000000 90.000000 90.000000 cell{atomic_unit}  Traj: positions{atomic_unit}   Bead:       12
H -0.000928741717391026 6.179223288088187e-06 5.793740959593987e-06
1
CELL(abcABC):  7.447216 7.447216 7.447216 90.000000 90.000000 90.000000 cell{atomic_unit}  Traj: positions{atomic_unit}   Bead:       13
H -0.0010095568335028104 6.819846405274388e-06 6.41460102432814e-06
1
CELL(abcABC):  7.447216 7.447216 7.447216 90.000000 90.000000 90.000000 cell{atomic_unit}  Traj: positions{atomic_unit}   Bead:       14
H -0.0010996828685102852 7.5264248991684565e-06 7.103466817279124e-06
1
CELL(abcABC):  7.447216 7.447216 7.447216 90.000000 90.000000 90.000000 cell{atomic_unit}  Traj: positions{atomic_unit}   Bead:       15
H -0.001199623008975866 8.297340862438719e-06 7.859999294821505e-06
1
CELL(abcABC):  7.447216 7.447216 7.447216 90.000000 90.000000 90.000000 cell{atomic_unit}  Traj: positions{atomic_unit}   Bead:       16
H -0.001309789150362073 9.128618033980961e-06 8.681666711892155e-06
1
CELL(abcABC):  7.447216 7.447216 7.447216 90.000000 90.000000 90.000000 cell{atomic_unit}  Traj: positions{atomic_unit}   Bead:       17
H -0.0014304395568639965 1.0013332705787829e-05 9.563098232692257e-06
1
CELL(abcABC):  7.447216 7.447216 7.447216 90.000000 90.000000 90.000000 cell{atomic_unit}  Traj: positions{atomic_unit}   Bead:       18
H -0.0015615965133487263 1.0940976644209073e-05 1.0495350293278486e-05
1
CELL(abcABC):  7.447216 7.447216 7.447216 90.000000 90.000000 90.000000 cell{atomic_unit}  Traj: positions{atomic_unit}   Bead:       19
H -0.0017029393562551767 1.189678960622875e-05 1.1465097255077433e-05
1
CELL(abcABC):  7.447216 7.447216 7.447216 90.000000 90.000000 90.000000 cell{atomic_unit}  Traj: positions{atomic_unit}   Bead:       20
H -0.0018536678274515168 1.286111690760254e-05 1.2453779583540659e-05
1
CELL(abcABC):  7.447216 7.447216 7.447216 90.000000 90.000000 90.000000 cell{atomic_unit}  Traj: positions{atomic_unit}   Bead:       21
H -0.0020123305712405424 1.3808927079657885e-05 1.343678459299407e-05
1
CELL(abcABC):  7.447216 7.447216 7.447216 90.000000 90.000000 90.000000 cell{atomic_unit}  Traj: positions{atomic_unit}   Bead:       22
H -0.002176614073321076 1.4709378638757825e-05 1.4382689984399643e-05
1
CELL(abcABC):  7.447216 7.447216 7.447216 90.000000 90.000000 90.000000 cell{atomic_unit}  Traj: positions{atomic_unit}   Bead:       23
H -0.0023430888474112407 1.5525578352774578e-05 1.525269347812245e-05
1
CELL(abcABC):  7.447216 7.447216 7.447216 90.000000 90.000000 90.000000 cell{atomic_unit}  Traj: positions{atomic_unit}   Bead:       24
H -0.002506912822835591 1.621461431673092e-05 1.6000374206315927e-05
1
CELL(abcABC):  7.447216 7.447216 7.447216 90.000000 90.000000 90.000000 cell{atomic_unit}  Traj: positions{atomic_unit}   Bead:       25
H -0.0026614975091867198 1.6727927239854577e-05 1.6571963250637776e-05
1
CELL(abcABC):  7.447216 7.447216 7.447216 90.000000 90.000000 90.000000 cell{atomic_unit}  Traj: positions{atomic_unit}   Bead:       26
H -0.002798151676318484 1.7011930321776423e-05 1.690730150797207e-05
1
CELL(abcABC):  7.447216 7.447216 7.447216 90.000000 90.000000 90.000000 cell{atomic_unit}  Traj: positions{atomic_unit}   Bead:       27
H -0.0029057312163343254 1.7008922415544494e-05 1.6941700858747793e-05
1
CELL(abcABC):  7.447216 7.447216 7.447216 90.000000 90.000000 90.000000 cell{atomic_unit}  Traj: positions{atomic_unit}   Bead:       28
H -0.0029703437286906463 1.6658332333990492e-05 1.6608917818036515e-05
1
CELL(abcABC):  7.447216 7.447216 7.447216 90.000000 90.000000 90.000000 cell{atomic_unit}  Traj: positions{atomic_unit}   Bead:       29
H -0.0029752568198334692 1.5897856017281568e-05 1.5845289425101227e-05
1
CELL(abcABC):  7.447216 7.447216 7.447216 90.000000 90.000000 90.000000 cell{atomic_unit}  Traj: positions{atomic_unit}   Bead:       30
H -0.002905756570298819 1.4664163021518445e-05 1.4594907598489591e-05
1
CELL(abcABC):  7.447216 7.447216 7.447216 90.000000 90.000000 90.000000 cell{atomic_unit}  Traj: positions{atomic_unit}   Bead:       31
H -0.0027553626325377786 1.2899251740002145e-05 1.2814822313787983e-05
1
CELL(abcABC):  7.447216 7.447216 7.447216 90.000000 90.000000 90.000000 cell{atomic_unit}  Traj: positions{atomic_unit}   Bead:       32
H -0.002523148494301663 1.0565567626416703e-05 1.0481194409859432e-05
1
CELL(abcABC):  7.447216 7.447216 7.447216 90.000000 90.000000 90.000000 cell{atomic_unit}  Traj: positions{atomic_unit}   Bead:       33
H -0.002214660390182614 7.662673146253467e-06 7.597824386196702e-06
1
CELL(abcABC):  7.447216 7.447216 7.447216 90.000000 90.000000 90.000000 cell{atomic_unit}  Traj: positions{atomic_unit}   Bead:       34
H -0.0018402619991946592 4.240778206607407e-06 4.205143946761095e-06
1
CELL(abcABC):  7.447216 7.447216 7.447216 90.000000 90.000000 90.000000 cell{atomic_unit}  Traj: positions{atomic_unit}   Bead:       35
H -0.0014075046983160464 3.9386646425550463e-07 3.8226383178090123e-07
1
CELL(abcABC):  7.447216 7.447216 7.447216 90.000000 90.000000 90.000000 cell{atomic_unit}  Traj: positions{atomic_unit}   Bead:       36
H -0.0009263280010480216 -3.770295966702075e-06 -3.7636199456100595e-06
1
CELL(abcABC):  7.447216 7.447216 7.447216 90.000000 90.000000 90.000000 cell{atomic_unit}  Traj: positions{atomic_unit}   Bead:       37
H -0.0004157442017851492 -8.134270852072542e-06 -8.107611673217877e-06
1
CELL(abcABC):  7.447216 7.447216 7.447216 90.000000 90.000000 90.000000 cell{atomic_unit}  Traj: positions{atomic_unit}   Bead:       38
H 9.79323950855461e-05 -1.2554515540337626e-05 -1.2513062046955166e-05
1
CELL(abcABC):  7.447216 7.447216 7.447216 90.000000 90.000000 90.000000 cell{atomic_unit}  Traj: positions{atomic_unit}   Bead:       39
H 0.0005926790678880882 -1.6879112658255353e-05 -1.6842369090864147e-05
1
CELL(abcABC):  7.447216 7.447216 7.447216 90.000000 90.000000 90.000000 cell{atomic_unit}  Traj: positions{atomic_unit}   Bead:       40
H 0.001056706989434943 -2.098805281513823e-05 -2.097260341987229e-05
1
CELL(abcABC):  7.447216 7.447216 7.447216 90.000000 90.000000 90.000000 cell{atomic_unit}  Traj: positions{atomic_unit}   Bead:       41
H 0.001480434779650579 -2.480220772712647e-05 -2.4806254474894556e-05
1
CELL(abcABC):  7.447216 7.447216 7.447216 90.000000 90.000000 90.000000 cell{atomic_unit}  Traj: positions{atomic_unit}   Bead:       42
H 0.0018514311315997773 -2.8266458210059644e-05 -2.8275270310315577e-05
1
CELL(abcABC):  7.447216 7.447216 7.447216 90.000000 90.000000 90.000000 cell{atomic_unit}  Traj: positions{atomic_unit}   Bead:       43
H 0.002156829918820871 -3.1339645704256474e-05 -3.1340461613576785e-05
1
CELL(abcABC):  7.447216 7.447216 7.447216 90.000000 90.000000 90.000000 cell{atomic_unit}  Traj: positions{atomic_unit}   Bead:       44
H 0.0023891392741144206 -3.399786378826222e-05 -3.3987336533253716e-05
1
CELL(abcABC):  7.447216 7.447216 7.447216 90.000000 90.000000 90.000000 cell{atomic_unit}  Traj: positions{atomic_unit}   Bead:       45
H 0.0025537430751836447 -3.6236971090179254e-05 -3.621914226156378e-05
1
CELL(abcABC):  7.447216 7.447216 7.447216 90.000000 90.000000 90.000000 cell{atomic_unit}  Traj: positions{atomic_unit}   Bead:       46
H 0.0026622456715252197 -3.807098137996945e-05 -3.805311787710826e-05
1
CELL(abcABC):  7.447216 7.447216 7.447216 90.000000 90.000000 90.000000 cell{atomic_unit}  Traj: positions{atomic_unit}   Bead:       47
H 0.002725466147713874 -3.952807909674116e-05 -3.9517925419401965e-05
1
CELL(abcABC):  7.447216 7.447216 7.447216 90.000000 90.000000 90.000000 cell{atomic_unit}  Traj: positions{atomic_unit}   Bead:       48
H 0.0027530502659584696 -4.0646697785014804e-05 -4.0650168942550235e-05
1
CELL(abcABC):  7.447216 7.447216 7.447216 90.000000 90.000000 90.000000 cell{atomic_unit}  Traj: positions{atomic_unit}   Bead:       49
H 0.0027530695999432504 -4.1472053415142506e-05 -4.1490579026396394e-05
1
CELL(abcABC):  7.447216 7.447216 7.447216 90.000000 90.000000 90.000000 cell{atomic_unit}  Traj: positions{atomic_unit}   Bead:       50
H 0.0027321962968313764 -4.2051631656033984e-05 -4.2080730892883925e-05
1
CELL(abcABC):  7.447216 7.447216 7.447216 90.000000 90.000000 90.000000 cell{atomic_unit}  Traj: positions{atomic_unit}   Bead:       51
H 0.0026961453808944554 -4.243108436232672e-05 -4.246098525330479e-05
1
CELL(abcABC):  7.447216 7.447216 7.447216 90.000000 90.000000 90.000000 cell{atomic_unit}  Traj: positions{atomic_unit}   Bead:       52
H 0.0026497503065520023 -4.265194618645704e-05 -4.266932383658992e-05
1
CELL(abcABC):  7.447216 7.447216 7.447216 90.000000 90.000000 90.000000 cell{atomic_unit}  Traj: positions{atomic_unit}   Bead:       53
H 0.002597044879060316 -4.275048571577458e-05 -4.2740748877097914e-05
1
CELL(abcABC):  7.447216 7.447216 7.447216 90.000000 90.000000 90.000000 cell{atomic_unit}  Traj: positions{atomic_unit}   Bead:       54
H 0.0025413608103564776 -4.2757131678051544e-05 -4.270699954190205e-05
1
CELL(abcABC):  7.447216 7.447216 7.447216 90.000000 90.000000 90.000000 cell{atomic_unit}  Traj: positions{atomic_unit}   Bead:       55
H 0.0024855402505517036 -4.2696175694714744e-05 -4.2596439571785394e-05
1
CELL(abcABC):  7.447216 7.447216 7.447216 90.000000 90.000000 90.000000 cell{atomic_unit}  Traj: positions{atomic_unit}   Bead:       56
H 0.0024319357382934395 -4.258759490998486e-05 -4.2434361282184115e-05
1
CELL(abcABC):  7.447216 7.447216 7.447216 90.000000 90.000000 90.000000 cell{atomic_unit}  Traj: positions{atomic_unit}   Bead:       57
H 0.0023823230547653923 -4.244914599687174e-05 -4.224327212902339e-05
1
CELL(abcABC):  7.447216 7.447216 7.447216 90.000000 90.000000 90.000000 cell{atomic_unit}  Traj: positions{atomic_unit}   Bead:       58
H 0.0023380164748389495 -4.2297035033673714e-05 -4.2042918520608655e-05
1
CELL(abcABC):  7.447216 7.447216 7.447216 90.000000 90.000000 90.000000 cell{atomic_unit}  Traj: positions{atomic_unit}   Bead:       59
H 0.002299972765609061 -4.214591664475417e-05 -4.185023649623264e-05
1
CELL(abcABC):  7.447216 7.447216 7.447216 90.000000 90.000000 90.000000 cell{atomic_unit}  Traj: positions{atomic_unit}   Bead:       60
H 0.002268874758516123 -4.2008635366584095e-05 -4.167931064832618e-05
1
CELL(abcABC):  7.447216 7.447216 7.447216 90.000000 90.000000 90.000000 cell{atomic_unit}  Traj: positions{atomic_unit}   Bead:       61
H 0.002245196740300181 -4.189590721001791e-05 -4.154136338004672e-05
1
CELL(abcABC):  7.447216 7.447216 7.447216 90.000000 90.000000 90.000000 cell{atomic_unit}  Traj: positions{atomic_unit}   Bead:       62
H 0.0022292538458734525 -4.181603044978883e-05 -4.1444770535158775e-05
1
CELL(abcABC):  7.447216 7.447216 7.447216 90.000000 90.000000 90.000000 cell{atomic_unit}  Traj: positions{atomic_unit}   Bead:       63
H 0.002221237350653934 -4.177466076103284e-05 -4.1395090159630784e-05
