7
# CELL(abcABC):   25.29166    25.29166    25.29166    90.00000    90.00000    90.00000  Step:           0  Bead:       0 x_centroid{atomic_unit}  cell{atomic_unit}
       O  1.02130e+00 -1.84220e+00 -4.09276e-01
       O  5.52715e+00 -1.58596e+00  2.87988e-01
       H  3.47444e-01 -2.37735e+00 -2.03854e+00
       H  3.29434e+00 -1.71829e+00 -1.89719e-01
       H  6.23055e+00 -3.01079e+00  1.22313e+00
       H  6.67136e+00 -1.14921e+00 -1.08863e+00
       H  7.99951e-02 -3.68232e-01  1.74386e-01
7
# CELL(abcABC):   25.29166    25.29166    25.29166    90.00000    90.00000    90.00000  Step:           1  Bead:       0 x_centroid{atomic_unit}  cell{atomic_unit}
       O  1.02495e+00 -1.83630e+00 -4.14304e-01
       O  5.52517e+00 -1.59224e+00  2.82448e-01
       H  3.51377e-01 -2.37241e+00 -2.02691e+00
       H  3.29402e+00 -1.71822e+00 -1.87663e-01
       H  6.22607e+00 -3.00070e+00  1.21530e+00
       H  6.66401e+00 -1.15342e+00 -1.07846e+00
       H  8.65366e-02 -3.78731e-01  1.68934e-01
7
# CELL(abcABC):   25.29166    25.29166    25.29166    90.00000    90.00000    90.00000  Step:           2  Bead:       0 x_centroid{atomic_unit}  cell{atomic_unit}
       O  1.04410e+00 -1.83392e+00 -4.13840e-01
       O  5.50676e+00 -1.59479e+00  2.77142e-01
       H  3.52761e-01 -2.36933e+00 -2.02159e+00
       H  3.29361e+00 -1.71814e+00 -1.84948e-01
       H  6.22416e+00 -2.99616e+00  1.21076e+00
       H  6.66105e+00 -1.15613e+00 -1.07364e+00
       H  8.96908e-02 -3.83550e-01  1.65455e-01
7
# CELL(abcABC):   25.29166    25.29166    25.29166    90.00000    90.00000    90.00000  Step:           3  Bead:       0 x_centroid{atomic_unit}  cell{atomic_unit}
       O  1.04873e+00 -1.83294e+00 -4.16414e-01
       O  5.50306e+00 -1.59610e+00  2.73303e-01
       H  3.61318e-01 -2.37325e+00 -2.02021e+00
       H  3.29399e+00 -1.71823e+00 -1.87084e-01
       H  6.21561e+00 -2.99772e+00  1.21399e+00
       H  6.65259e+00 -1.15215e+00 -1.07524e+00
       H  9.68309e-02 -3.81658e-01  1.70998e-01
7
# CELL(abcABC):   25.29166    25.29166    25.29166    90.00000    90.00000    90.00000  Step:           4  Bead:       0 x_centroid{atomic_unit}  cell{atomic_unit}
       O  1.05070e+00 -1.83105e+00 -4.15322e-01
       O  5.50084e+00 -1.59793e+00  2.73749e-01
       H  3.64944e-01 -2.37571e+00 -2.02126e+00
       H  3.29423e+00 -1.71829e+00 -1.88450e-01
       H  6.21078e+00 -2.99760e+00  1.21483e+00
       H  6.64947e+00 -1.14978e+00 -1.07746e+00
       H  1.01178e-01 -3.81695e-01  1.73246e-01
7
# CELL(abcABC):   25.29166    25.29166    25.29166    90.00000    90.00000    90.00000  Step:           5  Bead:       0 x_centroid{atomic_unit}  cell{atomic_unit}
       O  1.05036e+00 -1.83443e+00 -4.13200e-01
       O  5.50060e+00 -1.59449e+00  2.75616e-01
       H  3.66451e-01 -2.37586e+00 -2.02222e+00
       H  3.29439e+00 -1.71835e+00 -1.89475e-01
       H  6.20796e+00 -2.99923e+00  1.21411e+00
       H  6.64831e+00 -1.14971e+00 -1.07881e+00
       H  1.04046e-01 -3.80031e-01  1.73333e-01
7
# CELL(abcABC):   25.29166    25.29166    25.29166    90.00000    90.00000    90.00000  Step:           6  Bead:       0 x_centroid{atomic_unit}  cell{atomic_unit}
       O  1.04885e+00 -1.83716e+00 -4.11389e-01
       O  5.50145e+00 -1.59162e+00  2.77584e-01
       H  3.68148e-01 -2.37546e+00 -2.02219e+00
       H  3.29452e+00 -1.71839e+00 -1.90215e-01
       H  6.20462e+00 -2.99970e+00  1.21230e+00
       H  6.64672e+00 -1.15009e+00 -1.07931e+00
       H  1.07813e-01 -3.79694e-01  1.72585e-01
7
# CELL(abcABC):   25.29166    25.29166    25.29166    90.00000    90.00000    90.00000  Step:           7  Bead:       0 x_centroid{atomic_unit}  cell{atomic_unit}
       O  1.05001e+00 -1.84000e+00 -4.10032e-01
       O  5.49989e+00 -1.58874e+00  2.78364e-01
       H  3.68898e-01 -2.37426e+00 -2.02141e+00
       H  3.29437e+00 -1.71837e+00 -1.89301e-01
       H  6.20212e+00 -2.99967e+00  1.20968e+00
       H  6.64580e+00 -1.15122e+00 -1.07878e+00
       H  1.11009e-01 -3.79873e-01  1.70849e-01
7
# CELL(abcABC):   25.29166    25.29166    25.29166    90.00000    90.00000    90.00000  Step:           8  Bead:       0 x_centroid{atomic_unit}  cell{atomic_unit}
       O  1.05009e+00 -1.84000e+00 -4.09792e-01
       O  5.49978e+00 -1.58872e+00  2.78525e-01
       H  3.68857e-01 -2.37428e+00 -2.02154e+00
       H  3.29434e+00 -1.71836e+00 -1.89128e-01
       H  6.20191e+00 -2.99958e+00  1.20945e+00
       H  6.64584e+00 -1.15122e+00 -1.07884e+00
       H  1.11270e-01 -3.79967e-01  1.70699e-01
7
# CELL(abcABC):   25.29166    25.29166    25.29166    90.00000    90.00000    90.00000  Step:           9  Bead:       0 x_centroid{atomic_unit}  cell{atomic_unit}
       O  1.05010e+00 -1.84012e+00 -4.09971e-01
       O  5.49993e+00 -1.58867e+00  2.78342e-01
       H  3.68788e-01 -2.37455e+00 -2.02170e+00
       H  3.29417e+00 -1.71832e+00 -1.88120e-01
       H  6.20158e+00 -2.99970e+00  1.20918e+00
       H  6.64589e+00 -1.15099e+00 -1.07893e+00
       H  1.11635e-01 -3.79805e-01  1.70566e-01
7
# CELL(abcABC):   25.29166    25.29166    25.29166    90.00000    90.00000    90.00000  Step:          10  Bead:       0 x_centroid{atomic_unit}  cell{atomic_unit}
       O  1.05006e+00 -1.84009e+00 -4.09991e-01
       O  5.49986e+00 -1.58864e+00  2.78367e-01
       H  3.68819e-01 -2.37460e+00 -2.02168e+00
       H  3.29414e+00 -1.71831e+00 -1.87992e-01
       H  6.20160e+00 -2.99980e+00  1.20916e+00
       H  6.64593e+00 -1.15092e+00 -1.07900e+00
       H  1.11685e-01 -3.79784e-01  1.70513e-01
7
# CELL(abcABC):   25.29166    25.29166    25.29166    90.00000    90.00000    90.00000  Step:          11  Bead:       0 x_centroid{atomic_unit}  cell{atomic_unit}
       O  1.04970e+00 -1.83973e+00 -4.09806e-01
       O  5.50010e+00 -1.58895e+00  2.78740e-01
       H  3.69576e-01 -2.37549e+00 -2.02132e+00
       H  3.29395e+00 -1.71836e+00 -1.87285e-01
       H  6.20217e+00 -3.00081e+00  1.20841e+00
       H  6.64509e+00 -1.15002e+00 -1.07892e+00
       H  1.11465e-01 -3.78823e-01  1.69569e-01
7
# CELL(abcABC):   25.29166    25.29166    25.29166    90.00000    90.00000    90.00000  Step:          12  Bead:       0 x_centroid{atomic_unit}  cell{atomic_unit}
       O  1.04957e+00 -1.83920e+00 -4.09261e-01
       O  5.50012e+00 -1.58948e+00  2.79399e-01
       H  3.70388e-01 -2.37664e+00 -2.02104e+00
       H  3.29372e+00 -1.71841e+00 -1.86379e-01
       H  6.20292e+00 -3.00199e+00  1.20732e+00
       H  6.64416e+00 -1.14889e+00 -1.07888e+00
       H  1.11149e-01 -3.77634e-01  1.68260e-01
7
# CELL(abcABC):   25.29166    25.29166    25.29166    90.00000    90.00000    90.00000  Step:          13  Bead:       0 x_centroid{atomic_unit}  cell{atomic_unit}
       O  1.04977e+00 -1.83864e+00 -4.08722e-01
       O  5.49975e+00 -1.59002e+00  2.79946e-01
       H  3.71452e-01 -2.37797e+00 -2.02016e+00
       H  3.29338e+00 -1.71844e+00 -1.84961e-01
       H  6.20410e+00 -3.00363e+00  1.20559e+00
       H  6.64282e+00 -1.14751e+00 -1.07838e+00
       H  1.10695e-01 -3.76091e-01  1.66145e-01
7
# CELL(abcABC):   25.29166    25.29166    25.29166    90.00000    90.00000    90.00000  Step:          14  Bead:       0 x_centroid{atomic_unit}  cell{atomic_unit}
       O  1.04971e+00 -1.83813e+00 -4.08365e-01
       O  5.49962e+00 -1.59053e+00  2.80388e-01
       H  3.72111e-01 -2.37878e+00 -2.01947e+00
       H  3.29316e+00 -1.71845e+00 -1.84022e-01
       H  6.20476e+00 -3.00449e+00  1.20429e+00
       H  6.64198e+00 -1.14664e+00 -1.07797e+00
       H  1.10575e-01 -3.75331e-01  1.64633e-01
7
# CELL(abcABC):   25.29166    25.29166    25.29166    90.00000    90.00000    90.00000  Step:          15  Bead:       0 x_centroid{atomic_unit}  cell{atomic_unit}
       O  1.04942e+00 -1.83831e+00 -4.07919e-01
       O  5.49983e+00 -1.59061e+00  2.80669e-01
       H  3.71908e-01 -2.37963e+00 -2.01897e+00
       H  3.29308e+00 -1.71834e+00 -1.83024e-01
       H  6.20504e+00 -3.00549e+00  1.20299e+00
       H  6.64195e+00 -1.14565e+00 -1.07737e+00
       H  1.10704e-01 -3.74348e-01  1.63135e-01
7
# CELL(abcABC):   25.29166    25.29166    25.29166    90.00000    90.00000    90.00000  Step:          16  Bead:       0 x_centroid{atomic_unit}  cell{atomic_unit}
       O  1.04925e+00 -1.83831e+00 -4.07773e-01
       O  5.49977e+00 -1.59062e+00  2.80849e-01
       H  3.71852e-01 -2.37994e+00 -2.01874e+00
       H  3.29308e+00 -1.71832e+00 -1.82785e-01
       H  6.20512e+00 -3.00589e+00  1.20258e+00
       H  6.64204e+00 -1.14526e+00 -1.07726e+00
       H  1.10812e-01 -3.74058e-01  1.62635e-01
7
# CELL(abcABC):   25.29166    25.29166    25.29166    90.00000    90.00000    90.00000  Step:          17  Bead:       0 x_centroid{atomic_unit}  cell{atomic_unit}
       O  1.04906e+00 -1.83831e+00 -4.07584e-01
       O  5.49979e+00 -1.59055e+00  2.80976e-01
       H  3.71800e-01 -2.38059e+00 -2.01821e+00
       H  3.29313e+00 -1.71837e+00 -1.82841e-01
       H  6.20511e+00 -3.00663e+00  1.20199e+00
       H  6.64204e+00 -1.14453e+00 -1.07680e+00
       H  1.11009e-01 -3.73445e-01  1.61969e-01
7
# CELL(abcABC):   25.29166    25.29166    25.29166    90.00000    90.00000    90.00000  Step:          18  Bead:       0 x_centroid{atomic_unit}  cell{atomic_unit}
       O  1.04877e+00 -1.83815e+00 -4.06657e-01
       O  5.49988e+00 -1.59083e+00  2.81742e-01
       H  3.71473e-01 -2.38287e+00 -2.01668e+00
       H  3.29332e+00 -1.71855e+00 -1.83255e-01
       H  6.20479e+00 -3.00870e+00  1.19981e+00
       H  6.64207e+00 -1.14204e+00 -1.07532e+00
       H  1.11675e-01 -3.71394e-01  1.59821e-01
7
# CELL(abcABC):   25.29166    25.29166    25.29166    90.00000    90.00000    90.00000  Step:          19  Bead:       0 x_centroid{atomic_unit}  cell{atomic_unit}
       O  1.04900e+00 -1.83792e+00 -4.06098e-01
       O  5.49949e+00 -1.59104e+00  2.82053e-01
       H  3.71079e-01 -2.38498e+00 -2.01508e+00
       H  3.29342e+00 -1.71863e+00 -1.83487e-01
       H  6.20454e+00 -3.01062e+00  1.19786e+00
       H  6.64209e+00 -1.13981e+00 -1.07374e+00
       H  1.12374e-01 -3.69623e-01  1.57908e-01
7
# CELL(abcABC):   25.29166    25.29166    25.29166    90.00000    90.00000    90.00000  Step:          20  Bead:       0 x_centroid{atomic_unit}  cell{atomic_unit}
       O  1.04909e+00 -1.83746e+00 -4.05725e-01
       O  5.49920e+00 -1.59149e+00  2.82395e-01
       H  3.70692e-01 -2.38691e+00 -2.01355e+00
       H  3.29348e+00 -1.71865e+00 -1.83608e-01
       H  6.20421e+00 -3.01214e+00  1.19602e+00
       H  6.64216e+00 -1.13777e+00 -1.07231e+00
       H  1.13199e-01 -3.68286e-01  1.56160e-01
7
# CELL(abcABC):   25.29166    25.29166    25.29166    90.00000    90.00000    90.00000  Step:          21  Bead:       0 x_centroid{atomic_unit}  cell{atomic_unit}
       O  1.04919e+00 -1.83726e+00 -4.05796e-01
       O  5.49920e+00 -1.59170e+00  2.82355e-01
       H  3.70390e-01 -2.38787e+00 -2.01291e+00
       H  3.29342e+00 -1.71856e+00 -1.83497e-01
       H  6.20411e+00 -3.01289e+00  1.19532e+00
       H  6.64218e+00 -1.13683e+00 -1.07163e+00
       H  1.13554e-01 -3.67630e-01  1.55520e-01
7
# CELL(abcABC):   25.29166    25.29166    25.29166    90.00000    90.00000    90.00000  Step:          22  Bead:       0 x_centroid{atomic_unit}  cell{atomic_unit}
       O  1.04933e+00 -1.83691e+00 -4.05827e-01
       O  5.49913e+00 -1.59206e+00  2.82473e-01
       H  3.69916e-01 -2.38908e+00 -2.01234e+00
       H  3.29332e+00 -1.71841e+00 -1.83334e-01
       H  6.20401e+00 -3.01373e+00  1.19455e+00
       H  6.64237e+00 -1.13567e+00 -1.07102e+00
       H  1.13971e-01 -3.66906e-01  1.54826e-01
7
# CELL(abcABC):   25.29166    25.29166    25.29166    90.00000    90.00000    90.00000  Step:          23  Bead:       0 x_centroid{atomic_unit}  cell{atomic_unit}
       O  1.04926e+00 -1.83677e+00 -4.05946e-01
       O  5.49918e+00 -1.59214e+00  2.82513e-01
       H  3.69726e-01 -2.38949e+00 -2.01211e+00
       H  3.29327e+00 -1.71835e+00 -1.83333e-01
       H  6.20411e+00 -3.01407e+00  1.19437e+00
       H  6.64246e+00 -1.13530e+00 -1.07081e+00
       H  1.14041e-01 -3.66674e-01  1.54632e-01
7
# CELL(abcABC):   25.29166    25.29166    25.29166    90.00000    90.00000    90.00000  Step:          24  Bead:       0 x_centroid{atomic_unit}  cell{atomic_unit}
       O  1.04923e+00 -1.83654e+00 -4.06008e-01
       O  5.49934e+00 -1.59232e+00  2.82652e-01
       H  3.69394e-01 -2.38999e+00 -2.01192e+00
       H  3.29321e+00 -1.71829e+00 -1.83413e-01
       H  6.20427e+00 -3.01439e+00  1.19412e+00
       H  6.64261e+00 -1.13488e+00 -1.07053e+00
       H  1.14008e-01 -3.66383e-01  1.54405e-01
7
# CELL(abcABC):   25.29166    25.29166    25.29166    90.00000    90.00000    90.00000  Step:          25  Bead:       0 x_centroid{atomic_unit}  cell{atomic_unit}
       O  1.04925e+00 -1.83641e+00 -4.06086e-01
       O  5.49941e+00 -1.59238e+00  2.82681e-01
       H  3.69160e-01 -2.39027e+00 -2.01173e+00
       H  3.29317e+00 -1.71827e+00 -1.83510e-01
       H  6.20448e+00 -3.01462e+00  1.19397e+00
       H  6.64269e+00 -1.13467e+00 -1.07027e+00
       H  1.13901e-01 -3.66192e-01  1.54239e-01
7
# CELL(abcABC):   25.29166    25.29166    25.29166    90.00000    90.00000    90.00000  Step:          26  Bead:       0 x_centroid{atomic_unit}  cell{atomic_unit}
       O  1.04926e+00 -1.83614e+00 -4.06158e-01
       O  5.49941e+00 -1.59255e+00  2.82812e-01
       H  3.68825e-01 -2.39061e+00 -2.01142e+00
       H  3.29314e+00 -1.71826e+00 -1.83687e-01
       H  6.20479e+00 -3.01485e+00  1.19370e+00
       H  6.64289e+00 -1.13439e+00 -1.06993e+00
       H  1.13745e-01 -3.66029e-01  1.53945e-01
7
# CELL(abcABC):   25.29166    25.29166    25.29166    90.00000    90.00000    90.00000  Step:          27  Bead:       0 x_centroid{atomic_unit}  cell{atomic_unit}
       O  1.04927e+00 -1.83610e+00 -4.06168e-01
       O  5.49943e+00 -1.59258e+00  2.82788e-01
       H  3.68774e-01 -2.39064e+00 -2.01136e+00
       H  3.29316e+00 -1.71828e+00 -1.83709e-01
       H  6.20483e+00 -3.01486e+00  1.19366e+00
       H  6.64291e+00 -1.13436e+00 -1.06985e+00
       H  1.13698e-01 -3.66006e-01  1.53899e-01
7
# CELL(abcABC):   25.29166    25.29166    25.29166    90.00000    90.00000    90.00000  Step:          28  Bead:       0 x_centroid{atomic_unit}  cell{atomic_unit}
       O  1.04928e+00 -1.83606e+00 -4.06163e-01
       O  5.49941e+00 -1.59262e+00  2.82774e-01
       H  3.68737e-01 -2.39066e+00 -2.01132e+00
       H  3.29318e+00 -1.71830e+00 -1.83724e-01
       H  6.20486e+00 -3.01486e+00  1.19364e+00
       H  6.64296e+00 -1.13433e+00 -1.06980e+00
       H  1.13648e-01 -3.65992e-01  1.53865e-01
7
# CELL(abcABC):   25.29166    25.29166    25.29166    90.00000    90.00000    90.00000  Step:          29  Bead:       0 x_centroid{atomic_unit}  cell{atomic_unit}
       O  1.04926e+00 -1.83604e+00 -4.06165e-01
       O  5.49939e+00 -1.59264e+00  2.82727e-01
       H  3.68722e-01 -2.39066e+00 -2.01129e+00
       H  3.29323e+00 -1.71833e+00 -1.83726e-01
       H  6.20487e+00 -3.01487e+00  1.19366e+00
       H  6.64300e+00 -1.13429e+00 -1.06979e+00
       H  1.13610e-01 -3.65986e-01  1.53855e-01
7
# CELL(abcABC):   25.29166    25.29166    25.29166    90.00000    90.00000    90.00000  Step:          30  Bead:       0 x_centroid{atomic_unit}  cell{atomic_unit}
       O  1.04922e+00 -1.83602e+00 -4.06145e-01
       O  5.49940e+00 -1.59271e+00  2.82662e-01
       H  3.68696e-01 -2.39067e+00 -2.01128e+00
       H  3.29330e+00 -1.71838e+00 -1.83730e-01
       H  6.20486e+00 -3.01485e+00  1.19368e+00
       H  6.64306e+00 -1.13423e+00 -1.06978e+00
       H  1.13546e-01 -3.65972e-01  1.53850e-01
7
# CELL(abcABC):   25.29166    25.29166    25.29166    90.00000    90.00000    90.00000  Step:          31  Bead:       0 x_centroid{atomic_unit}  cell{atomic_unit}
       O  1.04922e+00 -1.83602e+00 -4.06143e-01
       O  5.49941e+00 -1.59272e+00  2.82642e-01
       H  3.68690e-01 -2.39067e+00 -2.01128e+00
       H  3.29332e+00 -1.71838e+00 -1.83732e-01
       H  6.20486e+00 -3.01485e+00  1.19369e+00
       H  6.64307e+00 -1.13422e+00 -1.06977e+00
       H  1.13534e-01 -3.65967e-01  1.53853e-01
7
# CELL(abcABC):   25.29166    25.29166    25.29166    90.00000    90.00000    90.00000  Step:          32  Bead:       0 x_centroid{atomic_unit}  cell{atomic_unit}
       O  1.04922e+00 -1.83602e+00 -4.06143e-01
       O  5.49941e+00 -1.59272e+00  2.82642e-01
       H  3.68690e-01 -2.39067e+00 -2.01128e+00
       H  3.29332e+00 -1.71838e+00 -1.83732e-01
       H  6.20486e+00 -3.01485e+00  1.19369e+00
       H  6.64307e+00 -1.13422e+00 -1.06977e+00
       H  1.13534e-01 -3.65967e-01  1.53853e-01
