7
# CELL(abcABC):   13.38377    13.38377    13.38377    90.00000    90.00000    90.00000  Step:           0  Bead:       0 velocities{atomic_unit}  cell{angstrom}
       O  0.00000e+00  0.00000e+00  0.00000e+00
       O  0.00000e+00  0.00000e+00  0.00000e+00
       H  0.00000e+00  0.00000e+00  0.00000e+00
       H  0.00000e+00  0.00000e+00  0.00000e+00
       H  0.00000e+00  0.00000e+00  0.00000e+00
       H  0.00000e+00  0.00000e+00  0.00000e+00
       H  0.00000e+00  0.00000e+00  0.00000e+00
7
# CELL(abcABC):   13.38377    13.38377    13.38377    90.00000    90.00000    90.00000  Step:           1  Bead:       0 velocities{atomic_unit}  cell{angstrom}
       O  6.57899e-07  1.03454e-06 -8.79796e-07
       O -3.64667e-07 -1.10233e-06 -9.75734e-07
       H  1.09455e-05  1.37763e-05  3.23895e-05
       H -8.83446e-07  1.76970e-07  5.76474e-06
       H -1.24760e-05  2.80847e-05 -2.18226e-05
       H -2.04495e-05 -1.17316e-05  2.83119e-05
       H  1.82089e-05 -2.92303e-05 -1.51901e-05
7
# CELL(abcABC):   13.38377    13.38377    13.38377    90.00000    90.00000    90.00000  Step:           2  Bead:       0 velocities{atomic_unit}  cell{angstrom}
       O  2.24894e-06  2.19357e-06 -1.76766e-06
       O -1.61669e-06 -2.33834e-06 -2.23642e-06
       H  3.93378e-05  3.35524e-05  7.85061e-05
       H -1.65389e-06  3.26559e-07  1.07990e-05
       H -4.20474e-05  6.66726e-05 -5.50981e-05
       H -6.17565e-05 -2.87504e-05  6.47268e-05
       H  5.60842e-05 -6.95031e-05 -3.53756e-05
7
# CELL(abcABC):   13.38377    13.38377    13.38377    90.00000    90.00000    90.00000  Step:           3  Bead:       0 velocities{atomic_unit}  cell{angstrom}
       O  5.71554e-06  3.58004e-06 -2.65144e-06
       O -4.65828e-06 -3.81962e-06 -4.05150e-06
       H  1.01897e-04  6.49861e-05  1.51177e-04
       H -2.20081e-06  4.28441e-07  1.44237e-05
       H -1.05097e-04  1.25527e-04 -1.10657e-04
       H -1.43821e-04 -5.60529e-05  1.16684e-04
       H  1.32439e-04 -1.31085e-04 -6.52288e-05
7
# CELL(abcABC):   13.38377    13.38377    13.38377    90.00000    90.00000    90.00000  Step:           4  Bead:       0 velocities{atomic_unit}  cell{angstrom}
       O  1.11398e-05  5.10019e-06 -3.43695e-06
       O -9.59532e-06 -5.44762e-06 -6.36286e-06
       H  1.96149e-04  1.06703e-04  2.46796e-04
       H -2.54896e-06  4.87794e-07  1.67727e-05
       H -1.99136e-04  2.01616e-04 -1.86054e-04
       H -2.63175e-04 -9.24727e-05  1.81423e-04
       H  2.44195e-04 -2.10819e-04 -1.03382e-04
