7
# CELL(abcABC):   13.38377    13.38377    13.38377    90.00000    90.00000    90.00000  Step:           0  Bead:       1 forces{atomic_unit}  cell{angstrom}
       O  1.81818e-03  2.94116e-03 -2.50697e-03
       O -9.85287e-04 -3.13292e-03 -2.76265e-03
       H  1.96107e-03  2.46561e-03  5.79956e-03
       H -1.56506e-04  3.13435e-05  1.02557e-03
       H -2.23442e-03  5.02951e-03 -3.90613e-03
       H -3.66320e-03 -2.09904e-03  5.06834e-03
       H  3.26133e-03 -5.23466e-03 -2.71860e-03
7
# CELL(abcABC):   13.38377    13.38377    13.38377    90.00000    90.00000    90.00000  Step:           1  Bead:       1 forces{atomic_unit}  cell{angstrom}
       O  1.89476e-03  2.89830e-03 -2.45855e-03
       O -1.07289e-03 -3.08759e-03 -2.74433e-03
       H  1.93059e-03  2.43258e-03  5.71649e-03
       H -1.57608e-04  3.16263e-05  1.02407e-03
       H -2.20143e-03  4.95603e-03 -3.85288e-03
       H -3.60761e-03 -2.07206e-03  4.99794e-03
       H  3.21283e-03 -5.15812e-03 -2.68223e-03
7
# CELL(abcABC):   13.38377    13.38377    13.38377    90.00000    90.00000    90.00000  Step:           2  Bead:       1 forces{atomic_unit}  cell{angstrom}
       O  2.12455e-03  2.77122e-03 -2.31535e-03
       O -1.33437e-03 -2.95412e-03 -2.68566e-03
       H  1.84007e-03  2.33641e-03  5.46587e-03
       H -1.56496e-04  3.02336e-05  1.02242e-03
       H -2.10407e-03  4.73641e-03 -3.69539e-03
       H -3.44293e-03 -1.99056e-03  4.78159e-03
       H  3.07413e-03 -4.93190e-03 -2.57610e-03
7
# CELL(abcABC):   13.38377    13.38377    13.38377    90.00000    90.00000    90.00000  Step:           3  Bead:       1 forces{atomic_unit}  cell{angstrom}
       O  2.69373e-03  2.46227e-03 -1.96705e-03
       O -1.98031e-03 -2.62799e-03 -2.54778e-03
       H  1.60109e-03  2.11476e-03  4.87163e-03
       H -1.57461e-04  3.18281e-05  1.02971e-03
       H -1.85494e-03  4.21713e-03 -3.32744e-03
       H -3.03334e-03 -1.80610e-03  4.27545e-03
       H  2.72949e-03 -4.39271e-03 -2.33564e-03
7
# CELL(abcABC):   13.38377    13.38377    13.38377    90.00000    90.00000    90.00000  Step:           4  Bead:       1 forces{atomic_unit}  cell{angstrom}
       O  3.78359e-03  1.87602e-03 -1.30945e-03
       O -3.21128e-03 -2.01071e-03 -2.29408e-03
       H  1.13927e-03  1.71404e-03  3.76170e-03
       H -1.62066e-04  3.16916e-05  1.05623e-03
       H -1.37130e-03  3.24782e-03 -2.64833e-03
       H -2.25060e-03 -1.47170e-03  3.33634e-03
       H  2.07379e-03 -3.38776e-03 -1.90122e-03
