1
CELL(abcABC):  300.000000 300.000000 300.000000 90.000000 90.000000 90.000000 cell{atomic_unit}  Traj: positions{angstrom}   Bead:       0
H -0.5976686130584761 2.9518650482722926e-16 -1.7575993859450746e-16
1
CELL(abcABC):  300.000000 300.000000 300.000000 90.000000 90.000000 90.000000 cell{atomic_unit}  Traj: positions{angstrom}   Bead:       1
H -0.597119071158288 3.1857955587875695e-16 -1.8471548299510658e-16
1
CELL(abcABC):  300.000000 300.000000 300.000000 90.000000 90.000000 90.000000 cell{atomic_unit}  Traj: positions{angstrom}   Bead:       2
H -0.5960243576970736 3.066521023364775e-16 -1.713174282710295e-16
1
CELL(abcABC):  300.000000 300.000000 300.000000 90.000000 90.000000 90.000000 cell{atomic_unit}  Traj: positions{angstrom}   Bead:       3
H -0.5943883315888185 2.4062235711076225e-16 -1.2838522204785964e-16
1
CELL(abcABC):  300.000000 300.000000 300.000000 90.000000 90.000000 90.000000 cell{atomic_unit}  Traj: positions{angstrom}   Bead:       4
H -0.5922143725948331 1.5545246558773018e-16 -9.07564650911533e-17
1
CELL(abcABC):  300.000000 300.000000 300.000000 90.000000 90.000000 90.000000 cell{atomic_unit}  Traj: positions{angstrom}   Bead:       5
H -0.5895054236949743 1.452498519166569e-16 -1.256572790624479e-16
1
CELL(abcABC):  300.000000 300.000000 300.000000 90.000000 90.000000 90.000000 cell{atomic_unit}  Traj: positions{angstrom}   Bead:       6
H -0.5862640414537467 1.694100957764404e-16 -7.818076714854819e-17
1
CELL(abcABC):  300.000000 300.000000 300.000000 90.000000 90.000000 90.000000 cell{atomic_unit}  Traj: positions{angstrom}   Bead:       7
H -0.5824924526052924 1.279130502286178e-16 -1.0507910672394363e-16
1
CELL(abcABC):  300.000000 300.000000 300.000000 90.000000 90.000000 90.000000 cell{atomic_unit}  Traj: positions{angstrom}   Bead:       8
H -0.5781926153929907 3.43535425115753e-17 -9.93091556121853e-17
1
CELL(abcABC):  300.000000 300.000000 300.000000 90.000000 90.000000 90.000000 cell{atomic_unit}  Traj: positions{angstrom}   Bead:       9
H -0.5733662843917783 2.2000638526854955e-17 -1.2138643371936433e-16
1
CELL(abcABC):  300.000000 300.000000 300.000000 90.000000 90.000000 90.000000 cell{atomic_unit}  Traj: positions{angstrom}   Bead:       10
H -0.5680150778081309 -5.141218684317463e-17 -1.3804654468007524e-16
1
CELL(abcABC):  300.000000 300.000000 300.000000 90.000000 90.000000 90.000000 cell{atomic_unit}  Traj: positions{angstrom}   Bead:       11
H -0.5621405463973044 -2.126396771408316e-17 -1.66224853304788e-16
1
CELL(abcABC):  300.000000 300.000000 300.000000 90.000000 90.000000 90.000000 cell{atomic_unit}  Traj: positions{angstrom}   Bead:       12
H -0.5557442433107488 -1.1909892557105838e-16 -1.7367028582118852e-16
1
CELL(abcABC):  300.000000 300.000000 300.000000 90.000000 90.000000 90.000000 cell{atomic_unit}  Traj: positions{angstrom}   Bead:       13
H -0.5488277942687843 -2.942504449275494e-17 -1.290193903518828e-16
1
CELL(abcABC):  300.000000 300.000000 300.000000 90.000000 90.000000 90.000000 cell{atomic_unit}  Traj: positions{angstrom}   Bead:       14
H -0.5413929675596459 -1.0122793329062244e-17 -1.2184453350972652e-16
1
CELL(abcABC):  300.000000 300.000000 300.000000 90.000000 90.000000 90.000000 cell{atomic_unit}  Traj: positions{angstrom}   Bead:       15
H -0.5334417434172002 3.1214039786135506e-17 -1.4101225296080044e-16
1
CELL(abcABC):  300.000000 300.000000 300.000000 90.000000 90.000000 90.000000 cell{atomic_unit}  Traj: positions{angstrom}   Bead:       16
H -0.5249763823658147 3.165013651884972e-17 -1.4224536529189657e-16
1
CELL(abcABC):  300.000000 300.000000 300.000000 90.000000 90.000000 90.000000 cell{atomic_unit}  Traj: positions{angstrom}   Bead:       17
H -0.5159994921485797 8.946057544019217e-18 -1.226491417266683e-16
1
CELL(abcABC):  300.000000 300.000000 300.000000 90.000000 90.000000 90.000000 cell{atomic_unit}  Traj: positions{angstrom}   Bead:       18
H -0.5065140928623147 4.014363076895384e-17 -1.2293429922636598e-16
1
CELL(abcABC):  300.000000 300.000000 300.000000 90.000000 90.000000 90.000000 cell{atomic_unit}  Traj: positions{angstrom}   Bead:       19
H -0.4965236799214574 4.5455592329311604e-17 -1.0977092115892332e-16
1
CELL(abcABC):  300.000000 300.000000 300.000000 90.000000 90.000000 90.000000 cell{atomic_unit}  Traj: positions{angstrom}   Bead:       20
H -0.4860322844717508 3.980877436644585e-17 -1.343104301000209e-16
1
CELL(abcABC):  300.000000 300.000000 300.000000 90.000000 90.000000 90.000000 cell{atomic_unit}  Traj: positions{angstrom}   Bead:       21
H -0.4750445308658918 5.109154644560759e-17 -1.4343009725850863e-16
1
CELL(abcABC):  300.000000 300.000000 300.000000 90.000000 90.000000 90.000000 cell{atomic_unit}  Traj: positions{angstrom}   Bead:       22
H -0.46356569080723725 6.395438493093801e-17 -1.4593548090872927e-16
1
CELL(abcABC):  300.000000 300.000000 300.000000 90.000000 90.000000 90.000000 cell{atomic_unit}  Traj: positions{angstrom}   Bead:       23
H -0.45160173376563695 2.4853261254367523e-17 -1.3713129985660356e-16
1
CELL(abcABC):  300.000000 300.000000 300.000000 90.000000 90.000000 90.000000 cell{atomic_unit}  Traj: positions{angstrom}   Bead:       24
H -0.4391593724179574 5.152922371847038e-17 -1.5816725580164246e-16
1
CELL(abcABC):  300.000000 300.000000 300.000000 90.000000 90.000000 90.000000 cell{atomic_unit}  Traj: positions{angstrom}   Bead:       25
H -0.4262461002380213 -7.18676482694519e-18 -1.0544698855789289e-16
1
CELL(abcABC):  300.000000 300.000000 300.000000 90.000000 90.000000 90.000000 cell{atomic_unit}  Traj: positions{angstrom}   Bead:       26
H -0.4128702238873034 4.28310346134525e-17 -1.3004819138237882e-16
1
CELL(abcABC):  300.000000 300.000000 300.000000 90.000000 90.000000 90.000000 cell{atomic_unit}  Traj: positions{angstrom}   Bead:       27
H -0.39904089161279577 5.243808690308217e-17 -1.6321263785523192e-16
1
CELL(abcABC):  300.000000 300.000000 300.000000 90.000000 90.000000 90.000000 cell{atomic_unit}  Traj: positions{angstrom}   Bead:       28
H -0.3847681178736045 4.80789747233375e-17 -1.9613225382617545e-16
1
CELL(abcABC):  300.000000 300.000000 300.000000 90.000000 90.000000 90.000000 cell{atomic_unit}  Traj: positions{angstrom}   Bead:       29
H -0.370062804247094 2.1806809450402686e-18 -2.77158120294915e-16
1
CELL(abcABC):  300.000000 300.000000 300.000000 90.000000 90.000000 90.000000 cell{atomic_unit}  Traj: positions{angstrom}   Bead:       30
H -0.3549367565250798 4.702568318858766e-17 -3.42193345039891e-16
1
CELL(abcABC):  300.000000 300.000000 300.000000 90.000000 90.000000 90.000000 cell{atomic_unit}  Traj: positions{angstrom}   Bead:       31
H -0.33940269780316246 3.5018352916297345e-17 -3.736496737892698e-16
1
CELL(abcABC):  300.000000 300.000000 300.000000 90.000000 90.000000 90.000000 cell{atomic_unit}  Traj: positions{angstrom}   Bead:       32
H -0.3234742772702931 5.1454620851773385e-17 -3.520629615931903e-16
1
CELL(abcABC):  300.000000 300.000000 300.000000 90.000000 90.000000 90.000000 cell{atomic_unit}  Traj: positions{angstrom}   Bead:       33
H -0.3071660743399646 1.1309358416974636e-16 -2.7832623575611e-16
1
CELL(abcABC):  300.000000 300.000000 300.000000 90.000000 90.000000 90.000000 cell{atomic_unit}  Traj: positions{angstrom}   Bead:       34
H -0.2904935977286244 7.695359046374384e-17 -2.250167379497842e-16
1
CELL(abcABC):  300.000000 300.000000 300.000000 90.000000 90.000000 90.000000 cell{atomic_unit}  Traj: positions{angstrom}   Bead:       35
H -0.2734732798252163 7.351405019022746e-17 -2.1014358794873625e-16
1
CELL(abcABC):  300.000000 300.000000 300.000000 90.000000 90.000000 90.000000 cell{atomic_unit}  Traj: positions{angstrom}   Bead:       36
H -0.2561224678324892 6.821922287243488e-17 -1.4165111788038542e-16
1
CELL(abcABC):  300.000000 300.000000 300.000000 90.000000 90.000000 90.000000 cell{atomic_unit}  Traj: positions{angstrom}   Bead:       37
H -0.23845940849939953 7.692206024489607e-17 -1.3390315989517356e-16
1
CELL(abcABC):  300.000000 300.000000 300.000000 90.000000 90.000000 90.000000 cell{atomic_unit}  Traj: positions{angstrom}   Bead:       38
H -0.22050322555838847 9.252785121440115e-17 -1.5464228749020959e-16
1
CELL(abcABC):  300.000000 300.000000 300.000000 90.000000 90.000000 90.000000 cell{atomic_unit}  Traj: positions{angstrom}   Bead:       39
H -0.2022738898832654 1.2870682694628448e-16 -1.3595311406757447e-16
1
CELL(abcABC):  300.000000 300.000000 300.000000 90.000000 90.000000 90.000000 cell{atomic_unit}  Traj: positions{angstrom}   Bead:       40
H -0.18379218241890788 1.0036351747445309e-16 -1.2908659152670594e-16
1
CELL(abcABC):  300.000000 300.000000 300.000000 90.000000 90.000000 90.000000 cell{atomic_unit}  Traj: positions{angstrom}   Bead:       41
H -0.1650796500089805 9.411159958193604e-17 -1.1455515810895535e-16
1
CELL(abcABC):  300.000000 300.000000 300.000000 90.000000 90.000000 90.000000 cell{atomic_unit}  Traj: positions{angstrom}   Bead:       42
H -0.1461585543347234 2.823987761539903e-17 -8.337355380871281e-17
1
CELL(abcABC):  300.000000 300.000000 300.000000 90.000000 90.000000 90.000000 cell{atomic_unit}  Traj: positions{angstrom}   Bead:       43
H -0.12705181428956533 4.01688728712086e-17 -7.162118855503457e-17
1
CELL(abcABC):  300.000000 300.000000 300.000000 90.000000 90.000000 90.000000 cell{atomic_unit}  Traj: positions{angstrom}   Bead:       44
H -0.10778294224126254 4.222642818648771e-17 -1.9836599959853298e-17
1
CELL(abcABC):  300.000000 300.000000 300.000000 90.000000 90.000000 90.000000 cell{atomic_unit}  Traj: positions{angstrom}   Bead:       45
H -0.08837597478056344 2.913011805439167e-17 -1.9357023239981298e-17
1
CELL(abcABC):  300.000000 300.000000 300.000000 90.000000 90.000000 90.000000 cell{atomic_unit}  Traj: positions{angstrom}   Bead:       46
H -0.06885539849558137 -2.907104745308154e-17 -5.227160927625581e-17
1
CELL(abcABC):  300.000000 300.000000 300.000000 90.000000 90.000000 90.000000 cell{atomic_unit}  Traj: positions{angstrom}   Bead:       47
H -0.049246071419930953 -1.4476682754425474e-17 -2.2071267633818768e-17
1
CELL(abcABC):  300.000000 300.000000 300.000000 90.000000 90.000000 90.000000 cell{atomic_unit}  Traj: positions{angstrom}   Bead:       48
H -0.02957314224492027 -1.3390808735530412e-17 -9.197208640635724e-19
1
CELL(abcABC):  300.000000 300.000000 300.000000 90.000000 90.000000 90.000000 cell{atomic_unit}  Traj: positions{angstrom}   Bead:       49
H -0.009861968167641174 -5.657775025267691e-19 1.6267189303755427e-17
1
CELL(abcABC):  300.000000 300.000000 300.000000 90.000000 90.000000 90.000000 cell{atomic_unit}  Traj: positions{angstrom}   Bead:       50
H 0.009861968167581362 -1.3420450855797485e-17 2.37946320717675e-17
1
CELL(abcABC):  300.000000 300.000000 300.000000 90.000000 90.000000 90.000000 cell{atomic_unit}  Traj: positions{angstrom}   Bead:       51
H 0.02957314224486051 -9.193822957924611e-18 3.053963492224371e-17
1
CELL(abcABC):  300.000000 300.000000 300.000000 90.000000 90.000000 90.000000 cell{atomic_unit}  Traj: positions{angstrom}   Bead:       52
H 0.049246071419871404 -2.898332695466574e-17 3.532614522368088e-17
1
CELL(abcABC):  300.000000 300.000000 300.000000 90.000000 90.000000 90.000000 cell{atomic_unit}  Traj: positions{angstrom}   Bead:       53
H 0.06885539849552205 -2.1775126680033667e-17 2.4239805497123023e-17
1
CELL(abcABC):  300.000000 300.000000 300.000000 90.000000 90.000000 90.000000 cell{atomic_unit}  Traj: positions{angstrom}   Bead:       54
H 0.08837597478050445 -4.411538648437754e-17 3.0991158407730134e-17
1
CELL(abcABC):  300.000000 300.000000 300.000000 90.000000 90.000000 90.000000 cell{atomic_unit}  Traj: positions{angstrom}   Bead:       55
H 0.10778294224120395 -1.6176074476373833e-18 3.093411773490542e-17
1
CELL(abcABC):  300.000000 300.000000 300.000000 90.000000 90.000000 90.000000 cell{atomic_unit}  Traj: positions{angstrom}   Bead:       56
H 0.12705181428950718 -7.910612761536642e-18 -1.5087917801212816e-17
1
CELL(abcABC):  300.000000 300.000000 300.000000 90.000000 90.000000 90.000000 cell{atomic_unit}  Traj: positions{angstrom}   Bead:       57
H 0.14615855433466574 1.1947349933900679e-17 -7.90439970594218e-18
1
CELL(abcABC):  300.000000 300.000000 300.000000 90.000000 90.000000 90.000000 cell{atomic_unit}  Traj: positions{angstrom}   Bead:       58
H 0.1650796500089235 -1.6429426363788978e-17 1.3693603323671268e-17
1
CELL(abcABC):  300.000000 300.000000 300.000000 90.000000 90.000000 90.000000 cell{atomic_unit}  Traj: positions{angstrom}   Bead:       59
H 0.18379218241885162 4.485724406598478e-18 -4.816930675912817e-18
1
CELL(abcABC):  300.000000 300.000000 300.000000 90.000000 90.000000 90.000000 cell{atomic_unit}  Traj: positions{angstrom}   Bead:       60
H 0.20227388988320988 -2.937609804971612e-17 -1.722316783422434e-17
1
CELL(abcABC):  300.000000 300.000000 300.000000 90.000000 90.000000 90.000000 cell{atomic_unit}  Traj: positions{angstrom}   Bead:       61
H 0.2205032255583338 3.5694680446690604e-17 -9.994376167134697e-18
1
CELL(abcABC):  300.000000 300.000000 300.000000 90.000000 90.000000 90.000000 cell{atomic_unit}  Traj: positions{angstrom}   Bead:       62
H 0.2384594084993457 5.145705366654026e-18 1.633741560898196e-17
1
CELL(abcABC):  300.000000 300.000000 300.000000 90.000000 90.000000 90.000000 cell{atomic_unit}  Traj: positions{angstrom}   Bead:       63
H 0.2561224678324365 1.369486438647109e-17 -4.160083170496563e-18
1
CELL(abcABC):  300.000000 300.000000 300.000000 90.000000 90.000000 90.000000 cell{atomic_unit}  Traj: positions{angstrom}   Bead:       64
H 0.27347327982516456 -6.913652560259981e-17 -2.892041282347231e-17
1
CELL(abcABC):  300.000000 300.000000 300.000000 90.000000 90.000000 90.000000 cell{atomic_unit}  Traj: positions{angstrom}   Bead:       65
H 0.29049359772857347 -1.556215303582794e-17 -1.3584551262793625e-17
1
CELL(abcABC):  300.000000 300.000000 300.000000 90.000000 90.000000 90.000000 cell{atomic_unit}  Traj: positions{angstrom}   Bead:       66
H 0.307166074339915 -3.0235770282685553e-17 -4.119303107178599e-18
1
CELL(abcABC):  300.000000 300.000000 300.000000 90.000000 90.000000 90.000000 cell{atomic_unit}  Traj: positions{angstrom}   Bead:       67
H 0.3234742772702446 1.9561496993410415e-17 -2.90164727607634e-17
1
CELL(abcABC):  300.000000 300.000000 300.000000 90.000000 90.000000 90.000000 cell{atomic_unit}  Traj: positions{angstrom}   Bead:       68
H 0.33940269780311505 7.414521945223807e-18 -4.283266248854187e-20
1
CELL(abcABC):  300.000000 300.000000 300.000000 90.000000 90.000000 90.000000 cell{atomic_unit}  Traj: positions{angstrom}   Bead:       69
H 0.35493675652503365 4.437205324243358e-17 8.324101330331296e-18
1
CELL(abcABC):  300.000000 300.000000 300.000000 90.000000 90.000000 90.000000 cell{atomic_unit}  Traj: positions{angstrom}   Bead:       70
H 0.3700628042470491 -1.507807486665526e-17 -1.6199126710384636e-18
1
CELL(abcABC):  300.000000 300.000000 300.000000 90.000000 90.000000 90.000000 cell{atomic_unit}  Traj: positions{angstrom}   Bead:       71
H 0.3847681178735607 -1.433576847458231e-17 1.0334129522888116e-17
1
CELL(abcABC):  300.000000 300.000000 300.000000 90.000000 90.000000 90.000000 cell{atomic_unit}  Traj: positions{angstrom}   Bead:       72
H 0.3990408916127532 -5.62052834446519e-17 1.0031106882573753e-17
1
CELL(abcABC):  300.000000 300.000000 300.000000 90.000000 90.000000 90.000000 cell{atomic_unit}  Traj: positions{angstrom}   Bead:       73
H 0.41287022388726197 -1.8995051803296754e-17 -1.2557576822673048e-18
1
CELL(abcABC):  300.000000 300.000000 300.000000 90.000000 90.000000 90.000000 cell{atomic_unit}  Traj: positions{angstrom}   Bead:       74
H 0.4262461002379811 -1.740856758106408e-18 2.2712687690356743e-17
1
CELL(abcABC):  300.000000 300.000000 300.000000 90.000000 90.000000 90.000000 cell{atomic_unit}  Traj: positions{angstrom}   Bead:       75
H 0.4391593724179183 1.0382225299653724e-17 2.240143995783595e-17
1
CELL(abcABC):  300.000000 300.000000 300.000000 90.000000 90.000000 90.000000 cell{atomic_unit}  Traj: positions{angstrom}   Bead:       76
H 0.45160173376559903 2.8056503566809723e-17 -7.192816973763881e-19
1
CELL(abcABC):  300.000000 300.000000 300.000000 90.000000 90.000000 90.000000 cell{atomic_unit}  Traj: positions{angstrom}   Bead:       77
H 0.4635656908072005 8.298667627131072e-18 -9.080380390925693e-18
1
CELL(abcABC):  300.000000 300.000000 300.000000 90.000000 90.000000 90.000000 cell{atomic_unit}  Traj: positions{angstrom}   Bead:       78
H 0.47504453086585624 -1.8350601248867283e-18 -1.4832825639371513e-17
1
CELL(abcABC):  300.000000 300.000000 300.000000 90.000000 90.000000 90.000000 cell{atomic_unit}  Traj: positions{angstrom}   Bead:       79
H 0.4860322844717164 -8.605513176998586e-18 8.875235001141374e-18
1
CELL(abcABC):  300.000000 300.000000 300.000000 90.000000 90.000000 90.000000 cell{atomic_unit}  Traj: positions{angstrom}   Bead:       80
H 0.49652367992142415 2.938433311434903e-17 2.2570974916973104e-17
1
CELL(abcABC):  300.000000 300.000000 300.000000 90.000000 90.000000 90.000000 cell{atomic_unit}  Traj: positions{angstrom}   Bead:       81
H 0.5065140928622827 -8.656973827237697e-18 -8.067157270234512e-19
1
CELL(abcABC):  300.000000 300.000000 300.000000 90.000000 90.000000 90.000000 cell{atomic_unit}  Traj: positions{angstrom}   Bead:       82
H 0.5159994921485486 1.7894015210608748e-17 -2.1235283961966993e-17
1
CELL(abcABC):  300.000000 300.000000 300.000000 90.000000 90.000000 90.000000 cell{atomic_unit}  Traj: positions{angstrom}   Bead:       83
H 0.5249763823657848 -7.524353571564896e-18 -9.861418215820233e-18
1
CELL(abcABC):  300.000000 300.000000 300.000000 90.000000 90.000000 90.000000 cell{atomic_unit}  Traj: positions{angstrom}   Bead:       84
H 0.5334417434171713 3.022882276321789e-17 -1.2596626005186225e-17
1
CELL(abcABC):  300.000000 300.000000 300.000000 90.000000 90.000000 90.000000 cell{atomic_unit}  Traj: positions{angstrom}   Bead:       85
H 0.5413929675596182 -2.0190646380881853e-17 1.018054109471179e-17
1
CELL(abcABC):  300.000000 300.000000 300.000000 90.000000 90.000000 90.000000 cell{atomic_unit}  Traj: positions{angstrom}   Bead:       86
H 0.5488277942687574 2.0970503126200397e-17 9.2384363473225e-18
1
CELL(abcABC):  300.000000 300.000000 300.000000 90.000000 90.000000 90.000000 cell{atomic_unit}  Traj: positions{angstrom}   Bead:       87
H 0.5557442433107228 -3.037788237533231e-17 -1.2260163251939441e-17
1
CELL(abcABC):  300.000000 300.000000 300.000000 90.000000 90.000000 90.000000 cell{atomic_unit}  Traj: positions{angstrom}   Bead:       88
H 0.5621405463972795 6.3535602576176534e-18 -3.5869285336942935e-18
1
CELL(abcABC):  300.000000 300.000000 300.000000 90.000000 90.000000 90.000000 cell{atomic_unit}  Traj: positions{angstrom}   Bead:       89
H 0.5680150778081069 -3.7594003748077575e-17 4.678824892103969e-18
1
CELL(abcABC):  300.000000 300.000000 300.000000 90.000000 90.000000 90.000000 cell{atomic_unit}  Traj: positions{angstrom}   Bead:       90
H 0.5733662843917551 1.7348597211786732e-17 -9.43160749838802e-18
1
CELL(abcABC):  300.000000 300.000000 300.000000 90.000000 90.000000 90.000000 cell{atomic_unit}  Traj: positions{angstrom}   Bead:       91
H 0.5781926153929682 1.0366640182924628e-17 8.447797084938232e-18
1
CELL(abcABC):  300.000000 300.000000 300.000000 90.000000 90.000000 90.000000 cell{atomic_unit}  Traj: positions{angstrom}   Bead:       92
H 0.5824924526052705 4.222691510257494e-17 9.096521954434686e-18
1
CELL(abcABC):  300.000000 300.000000 300.000000 90.000000 90.000000 90.000000 cell{atomic_unit}  Traj: positions{angstrom}   Bead:       93
H 0.5862640414537256 -5.055899822597893e-18 -6.344272627259154e-18
1
CELL(abcABC):  300.000000 300.000000 300.000000 90.000000 90.000000 90.000000 cell{atomic_unit}  Traj: positions{angstrom}   Bead:       94
H 0.5895054236949536 1.2283089461153833e-17 -1.628075187020088e-17
1
CELL(abcABC):  300.000000 300.000000 300.000000 90.000000 90.000000 90.000000 cell{atomic_unit}  Traj: positions{angstrom}   Bead:       95
H 0.5922143725948131 -2.9379345196496374e-17 -9.13406187133011e-18
1
CELL(abcABC):  300.000000 300.000000 300.000000 90.000000 90.000000 90.000000 cell{atomic_unit}  Traj: positions{angstrom}   Bead:       96
H 0.594388331588799 -8.757727506041917e-18 1.2431612088871418e-17
1
CELL(abcABC):  300.000000 300.000000 300.000000 90.000000 90.000000 90.000000 cell{atomic_unit}  Traj: positions{angstrom}   Bead:       97
H 0.5960243576970546 -6.658810076730138e-18 1.338932431833033e-17
1
CELL(abcABC):  300.000000 300.000000 300.000000 90.000000 90.000000 90.000000 cell{atomic_unit}  Traj: positions{angstrom}   Bead:       98
H 0.5971190711582691 5.4147455205677534e-18 -5.9851296757089915e-18
1
CELL(abcABC):  300.000000 300.000000 300.000000 90.000000 90.000000 90.000000 cell{atomic_unit}  Traj: positions{angstrom}   Bead:       99
H 0.5976686130584572 1.8214838174103114e-17 -3.2005545999975402e-18
