1
CELL(abcABC):  300.000000 300.000000 300.000000 90.000000 90.000000 90.000000 cell{atomic_unit}  Traj: positions{angstrom}   Bead:       0
H -0.7001866298570444 1.0837941457501408e-16 1.6049631270867828e-16
1
CELL(abcABC):  300.000000 300.000000 300.000000 90.000000 90.000000 90.000000 cell{atomic_unit}  Traj: positions{angstrom}   Bead:       1
H -0.6904163497557991 1.8601350459527287e-16 1.646454410401744e-16
1
CELL(abcABC):  300.000000 300.000000 300.000000 90.000000 90.000000 90.000000 cell{atomic_unit}  Traj: positions{angstrom}   Bead:       2
H -0.6803228208835445 1.718605747373803e-16 3.091059372022668e-16
1
CELL(abcABC):  300.000000 300.000000 300.000000 90.000000 90.000000 90.000000 cell{atomic_unit}  Traj: positions{angstrom}   Bead:       3
H -0.6699398506864095 1.6782698278559702e-16 4.189806039676283e-16
1
CELL(abcABC):  300.000000 300.000000 300.000000 90.000000 90.000000 90.000000 cell{atomic_unit}  Traj: positions{angstrom}   Bead:       4
H -0.6592962016521213 2.4016158351854624e-16 3.8132851147144065e-16
1
CELL(abcABC):  300.000000 300.000000 300.000000 90.000000 90.000000 90.000000 cell{atomic_unit}  Traj: positions{angstrom}   Bead:       5
H -0.6484163016652092 2.0282113918382592e-16 3.879938907461548e-16
1
CELL(abcABC):  300.000000 300.000000 300.000000 90.000000 90.000000 90.000000 cell{atomic_unit}  Traj: positions{angstrom}   Bead:       6
H -0.6373208965971009 1.5309384524422777e-16 2.734390233213412e-16
1
CELL(abcABC):  300.000000 300.000000 300.000000 90.000000 90.000000 90.000000 cell{atomic_unit}  Traj: positions{angstrom}   Bead:       7
H -0.6260275365681263 1.0018333701438159e-16 2.6459393665732804e-16
1
CELL(abcABC):  300.000000 300.000000 300.000000 90.000000 90.000000 90.000000 cell{atomic_unit}  Traj: positions{angstrom}   Bead:       8
H -0.6145512535645737 6.518452992058353e-17 3.1861274796156736e-16
1
CELL(abcABC):  300.000000 300.000000 300.000000 90.000000 90.000000 90.000000 cell{atomic_unit}  Traj: positions{angstrom}   Bead:       9
H -0.6029049819274701 -4.6475751456051726e-17 2.862047314006536e-16
1
CELL(abcABC):  300.000000 300.000000 300.000000 90.000000 90.000000 90.000000 cell{atomic_unit}  Traj: positions{angstrom}   Bead:       10
H -0.5911001158233478 -1.3397263775558127e-16 2.1026504137301679e-16
1
CELL(abcABC):  300.000000 300.000000 300.000000 90.000000 90.000000 90.000000 cell{atomic_unit}  Traj: positions{angstrom}   Bead:       11
H -0.5791468096773512 -1.9181712391522894e-16 2.747282115347206e-16
1
CELL(abcABC):  300.000000 300.000000 300.000000 90.000000 90.000000 90.000000 cell{atomic_unit}  Traj: positions{angstrom}   Bead:       12
H -0.5670544878681736 -1.094588989311177e-16 1.1841903717010481e-16
1
CELL(abcABC):  300.000000 300.000000 300.000000 90.000000 90.000000 90.000000 cell{atomic_unit}  Traj: positions{angstrom}   Bead:       13
H -0.5548321344435486 -1.5414742349767739e-16 1.0412107361098279e-16
1
CELL(abcABC):  300.000000 300.000000 300.000000 90.000000 90.000000 90.000000 cell{atomic_unit}  Traj: positions{angstrom}   Bead:       14
H -0.5424885430657638 -2.1868635206356253e-16 1.8980213340845718e-17
1
CELL(abcABC):  300.000000 300.000000 300.000000 90.000000 90.000000 90.000000 cell{atomic_unit}  Traj: positions{angstrom}   Bead:       15
H -0.530032689709717 -2.687815487066821e-16 -5.563540854336667e-17
1
CELL(abcABC):  300.000000 300.000000 300.000000 90.000000 90.000000 90.000000 cell{atomic_unit}  Traj: positions{angstrom}   Bead:       16
H -0.5174738893372751 -2.3988493484500586e-16 -5.860073220439143e-17
1
CELL(abcABC):  300.000000 300.000000 300.000000 90.000000 90.000000 90.000000 cell{atomic_unit}  Traj: positions{angstrom}   Bead:       17
H -0.5048220250071759 -2.3504497774251336e-16 -5.938893243391664e-17
1
CELL(abcABC):  300.000000 300.000000 300.000000 90.000000 90.000000 90.000000 cell{atomic_unit}  Traj: positions{angstrom}   Bead:       18
H -0.4920876544185109 -1.7085109306148605e-16 -1.0488346863126285e-17
1
CELL(abcABC):  300.000000 300.000000 300.000000 90.000000 90.000000 90.000000 cell{atomic_unit}  Traj: positions{angstrom}   Bead:       19
H -0.4792821931900729 -1.0818551117107069e-16 -4.7211785382089586e-17
1
CELL(abcABC):  300.000000 300.000000 300.000000 90.000000 90.000000 90.000000 cell{atomic_unit}  Traj: positions{angstrom}   Bead:       20
H -0.46641799818206475 -6.586840546607516e-17 -7.055286102626385e-17
1
CELL(abcABC):  300.000000 300.000000 300.000000 90.000000 90.000000 90.000000 cell{atomic_unit}  Traj: positions{angstrom}   Bead:       21
H -0.45350844299063553 -1.0367711389048155e-16 -1.9404821419412928e-16
1
CELL(abcABC):  300.000000 300.000000 300.000000 90.000000 90.000000 90.000000 cell{atomic_unit}  Traj: positions{angstrom}   Bead:       22
H -0.44056798825634186 -2.0779148481268337e-16 -2.2930159904109535e-16
1
CELL(abcABC):  300.000000 300.000000 300.000000 90.000000 90.000000 90.000000 cell{atomic_unit}  Traj: positions{angstrom}   Bead:       23
H -0.42760099761089926 -1.6025659040659386e-16 -8.483169115776692e-17
1
CELL(abcABC):  300.000000 300.000000 300.000000 90.000000 90.000000 90.000000 cell{atomic_unit}  Traj: positions{angstrom}   Bead:       24
H -0.4145683100697024 -2.5822174348834816e-16 -1.1279116944077327e-16
1
CELL(abcABC):  300.000000 300.000000 300.000000 90.000000 90.000000 90.000000 cell{atomic_unit}  Traj: positions{angstrom}   Bead:       25
H -0.4014206856860263 -2.6358101439454324e-16 -1.3480523635308606e-16
1
CELL(abcABC):  300.000000 300.000000 300.000000 90.000000 90.000000 90.000000 cell{atomic_unit}  Traj: positions{angstrom}   Bead:       26
H -0.38810984347259136 -1.8464015223214142e-16 -1.1324800802927097e-16
1
CELL(abcABC):  300.000000 300.000000 300.000000 90.000000 90.000000 90.000000 cell{atomic_unit}  Traj: positions{angstrom}   Bead:       27
H -0.37458849954689316 -1.763275896078241e-16 -1.2508755282635654e-16
1
CELL(abcABC):  300.000000 300.000000 300.000000 90.000000 90.000000 90.000000 cell{atomic_unit}  Traj: positions{angstrom}   Bead:       28
H -0.3608103013068893 -2.1396888934001257e-16 -2.050401254827056e-16
1
CELL(abcABC):  300.000000 300.000000 300.000000 90.000000 90.000000 90.000000 cell{atomic_unit}  Traj: positions{angstrom}   Bead:       29
H -0.34672973062500023 -1.3869543891473195e-16 -1.2470035735699233e-16
1
CELL(abcABC):  300.000000 300.000000 300.000000 90.000000 90.000000 90.000000 cell{atomic_unit}  Traj: positions{angstrom}   Bead:       30
H -0.3323021200618583 -1.674947436055311e-16 -1.2076294414424756e-16
1
CELL(abcABC):  300.000000 300.000000 300.000000 90.000000 90.000000 90.000000 cell{atomic_unit}  Traj: positions{angstrom}   Bead:       31
H -0.31748360318778684 -2.170067470713635e-16 -4.7859195834037034e-17
1
CELL(abcABC):  300.000000 300.000000 300.000000 90.000000 90.000000 90.000000 cell{atomic_unit}  Traj: positions{angstrom}   Bead:       32
H -0.30223107052496895 -3.4384940492585736e-17 -1.1956881153490444e-16
1
CELL(abcABC):  300.000000 300.000000 300.000000 90.000000 90.000000 90.000000 cell{atomic_unit}  Traj: positions{angstrom}   Bead:       33
H -0.28650220233145923 -2.8304182797184664e-17 -7.794518852324825e-17
1
CELL(abcABC):  300.000000 300.000000 300.000000 90.000000 90.000000 90.000000 cell{atomic_unit}  Traj: positions{angstrom}   Bead:       34
H -0.2702731003656089 9.36291712257045e-18 -1.1902871803789533e-16
1
CELL(abcABC):  300.000000 300.000000 300.000000 90.000000 90.000000 90.000000 cell{atomic_unit}  Traj: positions{angstrom}   Bead:       35
H -0.2535915479076463 1.2695844132231673e-16 -5.9236788170115e-17
1
CELL(abcABC):  300.000000 300.000000 300.000000 90.000000 90.000000 90.000000 cell{atomic_unit}  Traj: positions{angstrom}   Bead:       36
H -0.2365238093271138 1.5650251124001368e-16 -7.767898043236045e-17
1
CELL(abcABC):  300.000000 300.000000 300.000000 90.000000 90.000000 90.000000 cell{atomic_unit}  Traj: positions{angstrom}   Bead:       37
H -0.21913684467261532 2.1681316912197773e-16 -4.750904969533014e-17
1
CELL(abcABC):  300.000000 300.000000 300.000000 90.000000 90.000000 90.000000 cell{atomic_unit}  Traj: positions{angstrom}   Bead:       38
H -0.20149842772063306 2.5878086233049714e-16 -1.8266688185000848e-16
1
CELL(abcABC):  300.000000 300.000000 300.000000 90.000000 90.000000 90.000000 cell{atomic_unit}  Traj: positions{angstrom}   Bead:       39
H -0.1836770002950789 2.6335559899375916e-16 -1.465758099998457e-16
1
CELL(abcABC):  300.000000 300.000000 300.000000 90.000000 90.000000 90.000000 cell{atomic_unit}  Traj: positions{angstrom}   Bead:       40
H -0.16574171154343967 2.3825988511630464e-16 -1.1057777430139288e-16
1
CELL(abcABC):  300.000000 300.000000 300.000000 90.000000 90.000000 90.000000 cell{atomic_unit}  Traj: positions{angstrom}   Bead:       41
H -0.1477623565772929 1.8093906231002478e-16 -5.3442638033916424e-17
1
CELL(abcABC):  300.000000 300.000000 300.000000 90.000000 90.000000 90.000000 cell{atomic_unit}  Traj: positions{angstrom}   Bead:       42
H -0.12980934127828783 1.3537493290940835e-16 -9.892261084199032e-17
1
CELL(abcABC):  300.000000 300.000000 300.000000 90.000000 90.000000 90.000000 cell{atomic_unit}  Traj: positions{angstrom}   Bead:       43
H -0.11195354959104864 1.6615845266069585e-16 -9.94116606212137e-17
1
CELL(abcABC):  300.000000 300.000000 300.000000 90.000000 90.000000 90.000000 cell{atomic_unit}  Traj: positions{angstrom}   Bead:       44
H -0.09426640204866307 8.962949083514635e-17 -4.9595045946514584e-17
1
CELL(abcABC):  300.000000 300.000000 300.000000 90.000000 90.000000 90.000000 cell{atomic_unit}  Traj: positions{angstrom}   Bead:       45
H -0.07680029172253201 -3.6360415598934005e-19 -8.892018393694448e-18
1
CELL(abcABC):  300.000000 300.000000 300.000000 90.000000 90.000000 90.000000 cell{atomic_unit}  Traj: positions{angstrom}   Bead:       46
H -0.059530461681111015 3.8148510391999114e-17 1.9555036417004865e-17
1
CELL(abcABC):  300.000000 300.000000 300.000000 90.000000 90.000000 90.000000 cell{atomic_unit}  Traj: positions{angstrom}   Bead:       47
H -0.04241304059765765 4.1672201320835487e-17 2.8349439905545545e-17
1
CELL(abcABC):  300.000000 300.000000 300.000000 90.000000 90.000000 90.000000 cell{atomic_unit}  Traj: positions{angstrom}   Bead:       48
H -0.025404365981853513 -3.8091544508498006e-17 7.244158120446542e-17
1
CELL(abcABC):  300.000000 300.000000 300.000000 90.000000 90.000000 90.000000 cell{atomic_unit}  Traj: positions{angstrom}   Bead:       49
H -0.00846089048842021 -3.0296702938284644e-17 9.222464338777127e-18
1
CELL(abcABC):  300.000000 300.000000 300.000000 90.000000 90.000000 90.000000 cell{atomic_unit}  Traj: positions{angstrom}   Bead:       50
H 0.008460890488375186 -9.071001415318434e-19 5.120564690272587e-17
1
CELL(abcABC):  300.000000 300.000000 300.000000 90.000000 90.000000 90.000000 cell{atomic_unit}  Traj: positions{angstrom}   Bead:       51
H 0.025404365981808473 -7.160065766567827e-17 2.799726844513127e-17
1
CELL(abcABC):  300.000000 300.000000 300.000000 90.000000 90.000000 90.000000 cell{atomic_unit}  Traj: positions{angstrom}   Bead:       52
H 0.042413040597612736 -6.41452519404316e-17 2.108049497735838e-17
1
CELL(abcABC):  300.000000 300.000000 300.000000 90.000000 90.000000 90.000000 cell{atomic_unit}  Traj: positions{angstrom}   Bead:       53
H 0.059530461681066404 -6.176275519048329e-17 -1.2561187195451809e-17
1
CELL(abcABC):  300.000000 300.000000 300.000000 90.000000 90.000000 90.000000 cell{atomic_unit}  Traj: positions{angstrom}   Bead:       54
H 0.07680029172248758 -8.570695972896357e-17 3.7539150014057287e-17
1
CELL(abcABC):  300.000000 300.000000 300.000000 90.000000 90.000000 90.000000 cell{atomic_unit}  Traj: positions{angstrom}   Bead:       55
H 0.09426640204861884 -8.163451191216452e-17 -5.059198119516396e-18
1
CELL(abcABC):  300.000000 300.000000 300.000000 90.000000 90.000000 90.000000 cell{atomic_unit}  Traj: positions{angstrom}   Bead:       56
H 0.1119535495910047 -1.1149425274429495e-16 1.2268087109027748e-17
1
CELL(abcABC):  300.000000 300.000000 300.000000 90.000000 90.000000 90.000000 cell{atomic_unit}  Traj: positions{angstrom}   Bead:       57
H 0.12980934127824442 -1.7159618388705338e-16 3.465467734812383e-17
1
CELL(abcABC):  300.000000 300.000000 300.000000 90.000000 90.000000 90.000000 cell{atomic_unit}  Traj: positions{angstrom}   Bead:       58
H 0.14776235657724998 -1.0851169285969526e-16 5.3622911763189754e-17
1
CELL(abcABC):  300.000000 300.000000 300.000000 90.000000 90.000000 90.000000 cell{atomic_unit}  Traj: positions{angstrom}   Bead:       59
H 0.16574171154339723 -5.5448715431947836e-17 3.237644677076322e-17
1
CELL(abcABC):  300.000000 300.000000 300.000000 90.000000 90.000000 90.000000 cell{atomic_unit}  Traj: positions{angstrom}   Bead:       60
H 0.1836770002950369 -1.6394520581523428e-17 -2.9386407088705123e-18
1
CELL(abcABC):  300.000000 300.000000 300.000000 90.000000 90.000000 90.000000 cell{atomic_unit}  Traj: positions{angstrom}   Bead:       61
H 0.20149842772059137 1.1545722491035435e-17 2.109838973684168e-17
1
CELL(abcABC):  300.000000 300.000000 300.000000 90.000000 90.000000 90.000000 cell{atomic_unit}  Traj: positions{angstrom}   Bead:       62
H 0.21913684467257424 2.432747833918915e-17 -1.718357638687281e-17
1
CELL(abcABC):  300.000000 300.000000 300.000000 90.000000 90.000000 90.000000 cell{atomic_unit}  Traj: positions{angstrom}   Bead:       63
H 0.2365238093270734 6.560514377508419e-17 1.1865317398430083e-17
1
CELL(abcABC):  300.000000 300.000000 300.000000 90.000000 90.000000 90.000000 cell{atomic_unit}  Traj: positions{angstrom}   Bead:       64
H 0.2535915479076068 1.2893119060758167e-16 4.529520358676411e-18
1
CELL(abcABC):  300.000000 300.000000 300.000000 90.000000 90.000000 90.000000 cell{atomic_unit}  Traj: positions{angstrom}   Bead:       65
H 0.27027310036556984 1.4663589945189883e-16 2.3138333174566386e-17
1
CELL(abcABC):  300.000000 300.000000 300.000000 90.000000 90.000000 90.000000 cell{atomic_unit}  Traj: positions{angstrom}   Bead:       66
H 0.28650220233142076 1.3274018852424404e-16 -7.411365432596048e-17
1
CELL(abcABC):  300.000000 300.000000 300.000000 90.000000 90.000000 90.000000 cell{atomic_unit}  Traj: positions{angstrom}   Bead:       67
H 0.3022310705249314 8.354746952226194e-17 -3.165595903576487e-17
1
CELL(abcABC):  300.000000 300.000000 300.000000 90.000000 90.000000 90.000000 cell{atomic_unit}  Traj: positions{angstrom}   Bead:       68
H 0.31748360318775026 3.649909788830441e-17 -2.2837481951068608e-17
1
CELL(abcABC):  300.000000 300.000000 300.000000 90.000000 90.000000 90.000000 cell{atomic_unit}  Traj: positions{angstrom}   Bead:       69
H 0.3323021200618228 6.209452472831886e-17 -1.6319121708303676e-17
1
CELL(abcABC):  300.000000 300.000000 300.000000 90.000000 90.000000 90.000000 cell{atomic_unit}  Traj: positions{angstrom}   Bead:       70
H 0.34672973062496565 7.62849472563588e-17 -7.721406212930795e-17
1
CELL(abcABC):  300.000000 300.000000 300.000000 90.000000 90.000000 90.000000 cell{atomic_unit}  Traj: positions{angstrom}   Bead:       71
H 0.360810301306856 3.9571150916505666e-17 -1.9488806385741295e-17
1
CELL(abcABC):  300.000000 300.000000 300.000000 90.000000 90.000000 90.000000 cell{atomic_unit}  Traj: positions{angstrom}   Bead:       72
H 0.37458849954686096 5.425003777924076e-17 1.1340261142840728e-17
1
CELL(abcABC):  300.000000 300.000000 300.000000 90.000000 90.000000 90.000000 cell{atomic_unit}  Traj: positions{angstrom}   Bead:       73
H 0.3881098434725607 3.1781066255568626e-17 3.667328586690998e-17
1
CELL(abcABC):  300.000000 300.000000 300.000000 90.000000 90.000000 90.000000 cell{atomic_unit}  Traj: positions{angstrom}   Bead:       74
H 0.4014206856859973 -7.568249947071441e-17 3.362856719629812e-17
1
CELL(abcABC):  300.000000 300.000000 300.000000 90.000000 90.000000 90.000000 cell{atomic_unit}  Traj: positions{angstrom}   Bead:       75
H 0.4145683100696749 -6.248685425018971e-17 4.425069079174657e-17
1
CELL(abcABC):  300.000000 300.000000 300.000000 90.000000 90.000000 90.000000 cell{atomic_unit}  Traj: positions{angstrom}   Bead:       76
H 0.4276009976108735 2.7016505085311147e-17 6.695109414441047e-17
1
CELL(abcABC):  300.000000 300.000000 300.000000 90.000000 90.000000 90.000000 cell{atomic_unit}  Traj: positions{angstrom}   Bead:       77
H 0.440567988256318 1.0911783200266788e-17 1.401315092736241e-17
1
CELL(abcABC):  300.000000 300.000000 300.000000 90.000000 90.000000 90.000000 cell{atomic_unit}  Traj: positions{angstrom}   Bead:       78
H 0.4535084429906136 -1.5301898959551298e-17 4.4302752467654217e-17
1
CELL(abcABC):  300.000000 300.000000 300.000000 90.000000 90.000000 90.000000 cell{atomic_unit}  Traj: positions{angstrom}   Bead:       79
H 0.46641799818204477 -1.1591302365934481e-17 -1.4440572534547293e-17
1
CELL(abcABC):  300.000000 300.000000 300.000000 90.000000 90.000000 90.000000 cell{atomic_unit}  Traj: positions{angstrom}   Bead:       80
H 0.4792821931900548 -1.158375320384814e-17 2.1984847435660345e-17
1
CELL(abcABC):  300.000000 300.000000 300.000000 90.000000 90.000000 90.000000 cell{atomic_unit}  Traj: positions{angstrom}   Bead:       81
H 0.49208765441849445 -5.65785270886309e-17 -4.0976943136454e-18
1
CELL(abcABC):  300.000000 300.000000 300.000000 90.000000 90.000000 90.000000 cell{atomic_unit}  Traj: positions{angstrom}   Bead:       82
H 0.5048220250071609 -3.711701226433866e-17 4.3271197695269087e-17
1
CELL(abcABC):  300.000000 300.000000 300.000000 90.000000 90.000000 90.000000 cell{atomic_unit}  Traj: positions{angstrom}   Bead:       83
H 0.5174738893372619 -2.4091525896756422e-17 -5.890586210768644e-17
1
CELL(abcABC):  300.000000 300.000000 300.000000 90.000000 90.000000 90.000000 cell{atomic_unit}  Traj: positions{angstrom}   Bead:       84
H 0.5300326897097053 -1.4097007826700307e-17 2.043377930308936e-18
1
CELL(abcABC):  300.000000 300.000000 300.000000 90.000000 90.000000 90.000000 cell{atomic_unit}  Traj: positions{angstrom}   Bead:       85
H 0.5424885430657541 -5.064172572724142e-17 -3.462456206250463e-17
1
CELL(abcABC):  300.000000 300.000000 300.000000 90.000000 90.000000 90.000000 cell{atomic_unit}  Traj: positions{angstrom}   Bead:       86
H 0.5548321344435406 -7.569150773040198e-18 4.474390300719376e-17
1
CELL(abcABC):  300.000000 300.000000 300.000000 90.000000 90.000000 90.000000 cell{atomic_unit}  Traj: positions{angstrom}   Bead:       87
H 0.5670544878681673 3.9326544812945084e-18 -6.271120840319437e-17
1
CELL(abcABC):  300.000000 300.000000 300.000000 90.000000 90.000000 90.000000 cell{atomic_unit}  Traj: positions{angstrom}   Bead:       88
H 0.5791468096773464 3.1143445858285406e-17 -1.8027542608519455e-17
1
CELL(abcABC):  300.000000 300.000000 300.000000 90.000000 90.000000 90.000000 cell{atomic_unit}  Traj: positions{angstrom}   Bead:       89
H 0.5911001158233447 1.3045361522890922e-17 -3.990692743113382e-17
1
CELL(abcABC):  300.000000 300.000000 300.000000 90.000000 90.000000 90.000000 cell{atomic_unit}  Traj: positions{angstrom}   Bead:       90
H 0.6029049819274691 3.898180406334333e-17 3.7000005313515864e-17
1
CELL(abcABC):  300.000000 300.000000 300.000000 90.000000 90.000000 90.000000 cell{atomic_unit}  Traj: positions{angstrom}   Bead:       91
H 0.6145512535645746 1.194628233537466e-17 -2.26929049464041e-17
1
CELL(abcABC):  300.000000 300.000000 300.000000 90.000000 90.000000 90.000000 cell{atomic_unit}  Traj: positions{angstrom}   Bead:       92
H 0.6260275365681289 1.7768223570471032e-17 1.972901510854603e-17
1
CELL(abcABC):  300.000000 300.000000 300.000000 90.000000 90.000000 90.000000 cell{atomic_unit}  Traj: positions{angstrom}   Bead:       93
H 0.6373208965971052 4.841205909883579e-18 -3.195939307659412e-17
1
CELL(abcABC):  300.000000 300.000000 300.000000 90.000000 90.000000 90.000000 cell{atomic_unit}  Traj: positions{angstrom}   Bead:       94
H 0.6484163016652149 1.7619888084156288e-17 1.1094656264221007e-17
1
CELL(abcABC):  300.000000 300.000000 300.000000 90.000000 90.000000 90.000000 cell{atomic_unit}  Traj: positions{angstrom}   Bead:       95
H 0.6592962016521282 -1.90451728702613e-18 -7.315741063683307e-18
1
CELL(abcABC):  300.000000 300.000000 300.000000 90.000000 90.000000 90.000000 cell{atomic_unit}  Traj: positions{angstrom}   Bead:       96
H 0.6699398506864173 -1.684091419463833e-17 3.044956667867382e-17
1
CELL(abcABC):  300.000000 300.000000 300.000000 90.000000 90.000000 90.000000 cell{atomic_unit}  Traj: positions{angstrom}   Bead:       97
H 0.680322820883553 -2.0786308354036652e-17 3.005706336870892e-18
1
CELL(abcABC):  300.000000 300.000000 300.000000 90.000000 90.000000 90.000000 cell{atomic_unit}  Traj: positions{angstrom}   Bead:       98
H 0.6904163497558081 -8.555866400481323e-18 2.0022088030448503e-17
1
CELL(abcABC):  300.000000 300.000000 300.000000 90.000000 90.000000 90.000000 cell{atomic_unit}  Traj: positions{angstrom}   Bead:       99
H 0.7001866298570534 -4.49566134353093e-17 3.933087672441121e-17
