1
CELL(abcABC):  300.000000 300.000000 300.000000 90.000000 90.000000 90.000000 cell{atomic_unit}  Traj: positions{angstrom}   Bead:       0
H -0.911857516976584 4.963625637687861e-16 -5.423537074759837e-16
1
CELL(abcABC):  300.000000 300.000000 300.000000 90.000000 90.000000 90.000000 cell{atomic_unit}  Traj: positions{angstrom}   Bead:       1
H -0.875473790304967 5.427611348241133e-16 -5.382731420279509e-16
1
CELL(abcABC):  300.000000 300.000000 300.000000 90.000000 90.000000 90.000000 cell{atomic_unit}  Traj: positions{angstrom}   Bead:       2
H -0.8396041959000233 4.4474429575480935e-16 -4.933395748648331e-16
1
CELL(abcABC):  300.000000 300.000000 300.000000 90.000000 90.000000 90.000000 cell{atomic_unit}  Traj: positions{angstrom}   Bead:       3
H -0.804313651887689 3.266539533902711e-16 -5.324972075253649e-16
1
CELL(abcABC):  300.000000 300.000000 300.000000 90.000000 90.000000 90.000000 cell{atomic_unit}  Traj: positions{angstrom}   Bead:       4
H -0.769660962850695 4.745927046749124e-16 -4.766143675170174e-16
1
CELL(abcABC):  300.000000 300.000000 300.000000 90.000000 90.000000 90.000000 cell{atomic_unit}  Traj: positions{angstrom}   Bead:       5
H -0.7356999402363043 2.8034543719075355e-16 -4.702400640297943e-16
1
CELL(abcABC):  300.000000 300.000000 300.000000 90.000000 90.000000 90.000000 cell{atomic_unit}  Traj: positions{angstrom}   Bead:       6
H -0.7024803579848669 2.0903981746304194e-16 -5.168745755816558e-16
1
CELL(abcABC):  300.000000 300.000000 300.000000 90.000000 90.000000 90.000000 cell{atomic_unit}  Traj: positions{angstrom}   Bead:       7
H -0.6700483307406954 1.8033465373975175e-16 -4.749486941469297e-16
1
CELL(abcABC):  300.000000 300.000000 300.000000 90.000000 90.000000 90.000000 cell{atomic_unit}  Traj: positions{angstrom}   Bead:       8
H -0.6384475233783533 1.7072941774031821e-16 -3.9807099839644284e-16
1
CELL(abcABC):  300.000000 300.000000 300.000000 90.000000 90.000000 90.000000 cell{atomic_unit}  Traj: positions{angstrom}   Bead:       9
H -0.6077194427722431 1.1359962984483175e-16 -4.2391476436813203e-16
1
CELL(abcABC):  300.000000 300.000000 300.000000 90.000000 90.000000 90.000000 cell{atomic_unit}  Traj: positions{angstrom}   Bead:       10
H -0.5779043582139761 1.84897202076253e-16 -3.357477118628466e-16
1
CELL(abcABC):  300.000000 300.000000 300.000000 90.000000 90.000000 90.000000 cell{atomic_unit}  Traj: positions{angstrom}   Bead:       11
H -0.5490413103024367 1.562223797323868e-16 -3.5298147667484183e-16
1
CELL(abcABC):  300.000000 300.000000 300.000000 90.000000 90.000000 90.000000 cell{atomic_unit}  Traj: positions{angstrom}   Bead:       12
H -0.5211690343587484 1.4123191133534162e-16 -3.0653211849014235e-16
1
CELL(abcABC):  300.000000 300.000000 300.000000 90.000000 90.000000 90.000000 cell{atomic_unit}  Traj: positions{angstrom}   Bead:       13
H -0.49432611780376073 1.4908036050728766e-16 -2.8092677560593175e-16
1
CELL(abcABC):  300.000000 300.000000 300.000000 90.000000 90.000000 90.000000 cell{atomic_unit}  Traj: positions{angstrom}   Bead:       14
H -0.4685510957429262 1.011958988690076e-16 -2.594360803256724e-16
1
CELL(abcABC):  300.000000 300.000000 300.000000 90.000000 90.000000 90.000000 cell{atomic_unit}  Traj: positions{angstrom}   Bead:       15
H -0.4438831192485155 9.831959321823206e-17 -2.564088274016771e-16
1
CELL(abcABC):  300.000000 300.000000 300.000000 90.000000 90.000000 90.000000 cell{atomic_unit}  Traj: positions{angstrom}   Bead:       16
H -0.4203618676809437 1.0185250503271109e-16 -2.6568034761032407e-16
1
CELL(abcABC):  300.000000 300.000000 300.000000 90.000000 90.000000 90.000000 cell{atomic_unit}  Traj: positions{angstrom}   Bead:       17
H -0.39802783151311366 8.950235829385925e-17 -2.1649853959832557e-16
1
CELL(abcABC):  300.000000 300.000000 300.000000 90.000000 90.000000 90.000000 cell{atomic_unit}  Traj: positions{angstrom}   Bead:       18
H -0.37692219905270646 7.507188276526467e-17 -2.1879265871845722e-16
1
CELL(abcABC):  300.000000 300.000000 300.000000 90.000000 90.000000 90.000000 cell{atomic_unit}  Traj: positions{angstrom}   Bead:       19
H -0.35708712381019897 5.4232980505204084e-17 -2.0658137545837352e-16
1
CELL(abcABC):  300.000000 300.000000 300.000000 90.000000 90.000000 90.000000 cell{atomic_unit}  Traj: positions{angstrom}   Bead:       20
H -0.33856567685532424 -1.910866638633699e-18 -3.248222081179025e-16
1
CELL(abcABC):  300.000000 300.000000 300.000000 90.000000 90.000000 90.000000 cell{atomic_unit}  Traj: positions{angstrom}   Bead:       21
H -0.32140184069244776 -1.5239881228849202e-17 -3.529247800478679e-16
1
CELL(abcABC):  300.000000 300.000000 300.000000 90.000000 90.000000 90.000000 cell{atomic_unit}  Traj: positions{angstrom}   Bead:       22
H -0.3056405505899542 -1.0062369679782062e-16 -3.900564752948588e-16
1
CELL(abcABC):  300.000000 300.000000 300.000000 90.000000 90.000000 90.000000 cell{atomic_unit}  Traj: positions{angstrom}   Bead:       23
H -0.29128374355974335 -2.001410870655257e-16 -2.1033453494734877e-16
1
CELL(abcABC):  300.000000 300.000000 300.000000 90.000000 90.000000 90.000000 cell{atomic_unit}  Traj: positions{angstrom}   Bead:       24
H -0.2781594192140726 -3.1529673400965885e-16 -2.7972773033962585e-16
1
CELL(abcABC):  300.000000 300.000000 300.000000 90.000000 90.000000 90.000000 cell{atomic_unit}  Traj: positions{angstrom}   Bead:       25
H -0.26605262804183444 -3.0528003952242666e-16 -2.3951548352253084e-16
1
CELL(abcABC):  300.000000 300.000000 300.000000 90.000000 90.000000 90.000000 cell{atomic_unit}  Traj: positions{angstrom}   Bead:       26
H -0.25474879207515944 -2.9032415226594526e-16 -2.57632742647642e-16
1
CELL(abcABC):  300.000000 300.000000 300.000000 90.000000 90.000000 90.000000 cell{atomic_unit}  Traj: positions{angstrom}   Bead:       27
H -0.24403397432523538 -3.2461524591135356e-16 -3.1268910084315043e-16
1
CELL(abcABC):  300.000000 300.000000 300.000000 90.000000 90.000000 90.000000 cell{atomic_unit}  Traj: positions{angstrom}   Bead:       28
H -0.2336947395911425 -2.710367349151421e-16 -4.066429442133263e-16
1
CELL(abcABC):  300.000000 300.000000 300.000000 90.000000 90.000000 90.000000 cell{atomic_unit}  Traj: positions{angstrom}   Bead:       29
H -0.2235178862985847 -2.882248314999661e-16 -4.117134823293216e-16
1
CELL(abcABC):  300.000000 300.000000 300.000000 90.000000 90.000000 90.000000 cell{atomic_unit}  Traj: positions{angstrom}   Bead:       30
H -0.21329060943882883 -2.380651150837952e-16 -3.616048032691353e-16
1
CELL(abcABC):  300.000000 300.000000 300.000000 90.000000 90.000000 90.000000 cell{atomic_unit}  Traj: positions{angstrom}   Bead:       31
H -0.2028003923665509 -1.8861748790657293e-16 -2.534234470524004e-16
1
CELL(abcABC):  300.000000 300.000000 300.000000 90.000000 90.000000 90.000000 cell{atomic_unit}  Traj: positions{angstrom}   Bead:       32
H -0.19183490727350225 -1.6867496190643459e-16 -2.3736494923475667e-16
1
CELL(abcABC):  300.000000 300.000000 300.000000 90.000000 90.000000 90.000000 cell{atomic_unit}  Traj: positions{angstrom}   Bead:       33
H -0.18018220435331248 -1.0680540467205767e-16 -2.0926894954971675e-16
1
CELL(abcABC):  300.000000 300.000000 300.000000 90.000000 90.000000 90.000000 cell{atomic_unit}  Traj: positions{angstrom}   Bead:       34
H -0.16769978269072372 -7.495562956942617e-18 -1.4751888574686822e-16
1
CELL(abcABC):  300.000000 300.000000 300.000000 90.000000 90.000000 90.000000 cell{atomic_unit}  Traj: positions{angstrom}   Bead:       35
H -0.15452310328499522 1.2828964379655273e-17 -7.639769213012367e-17
1
CELL(abcABC):  300.000000 300.000000 300.000000 90.000000 90.000000 90.000000 cell{atomic_unit}  Traj: positions{angstrom}   Bead:       36
H -0.1408572970889002 5.319807340615204e-18 -3.8142557236571583e-17
1
CELL(abcABC):  300.000000 300.000000 300.000000 90.000000 90.000000 90.000000 cell{atomic_unit}  Traj: positions{angstrom}   Bead:       37
H -0.1269075276228525 -2.1099699301762547e-17 -3.198005723197305e-17
1
CELL(abcABC):  300.000000 300.000000 300.000000 90.000000 90.000000 90.000000 cell{atomic_unit}  Traj: positions{angstrom}   Bead:       38
H -0.11287948017544391 6.178126711309837e-18 -7.534686354201304e-17
1
CELL(abcABC):  300.000000 300.000000 300.000000 90.000000 90.000000 90.000000 cell{atomic_unit}  Traj: positions{angstrom}   Bead:       39
H -0.09897885996566937 4.6037713846292384e-17 -1.2691537423437565e-16
1
CELL(abcABC):  300.000000 300.000000 300.000000 90.000000 90.000000 90.000000 cell{atomic_unit}  Traj: positions{angstrom}   Bead:       40
H -0.08541165377781254 6.744522016582257e-17 -1.1872722965029147e-16
1
CELL(abcABC):  300.000000 300.000000 300.000000 90.000000 90.000000 90.000000 cell{atomic_unit}  Traj: positions{angstrom}   Bead:       41
H -0.07238403444934259 6.022597847606094e-17 -4.1736581370519255e-17
1
CELL(abcABC):  300.000000 300.000000 300.000000 90.000000 90.000000 90.000000 cell{atomic_unit}  Traj: positions{angstrom}   Bead:       42
H -0.06010240111686789 6.32581831104004e-17 -3.316847317928151e-17
1
CELL(abcABC):  300.000000 300.000000 300.000000 90.000000 90.000000 90.000000 cell{atomic_unit}  Traj: positions{angstrom}   Bead:       43
H -0.04877306652884275 3.388897148037654e-17 -2.4813600243967137e-17
1
CELL(abcABC):  300.000000 300.000000 300.000000 90.000000 90.000000 90.000000 cell{atomic_unit}  Traj: positions{angstrom}   Bead:       44
H -0.038602716035277956 -1.7427140407522685e-17 4.8328482654176795e-18
1
CELL(abcABC):  300.000000 300.000000 300.000000 90.000000 90.000000 90.000000 cell{atomic_unit}  Traj: positions{angstrom}   Bead:       45
H -0.029722069748897715 1.5900599600267545e-17 4.997795464807058e-18
1
CELL(abcABC):  300.000000 300.000000 300.000000 90.000000 90.000000 90.000000 cell{atomic_unit}  Traj: positions{angstrom}   Bead:       46
H -0.02195861714228625 6.100495191088486e-17 7.894789891188381e-18
1
CELL(abcABC):  300.000000 300.000000 300.000000 90.000000 90.000000 90.000000 cell{atomic_unit}  Traj: positions{angstrom}   Bead:       47
H -0.015064057301108292 1.3275763018019787e-17 6.57131030054593e-17
1
CELL(abcABC):  300.000000 300.000000 300.000000 90.000000 90.000000 90.000000 cell{atomic_unit}  Traj: positions{angstrom}   Bead:       48
H -0.00879017990265755 -3.089584573190589e-17 1.1124571587087125e-18
1
CELL(abcABC):  300.000000 300.000000 300.000000 90.000000 90.000000 90.000000 cell{atomic_unit}  Traj: positions{angstrom}   Bead:       49
H -0.002888719617802259 -1.6693642146510902e-17 -1.589733367051878e-17
1
CELL(abcABC):  300.000000 300.000000 300.000000 90.000000 90.000000 90.000000 cell{atomic_unit}  Traj: positions{angstrom}   Bead:       50
H 0.0028887196178679197 1.7875287053754342e-17 -8.85710887978216e-18
1
CELL(abcABC):  300.000000 300.000000 300.000000 90.000000 90.000000 90.000000 cell{atomic_unit}  Traj: positions{angstrom}   Bead:       51
H 0.008790179902723067 4.0844928004060655e-17 -1.4926767297826394e-17
1
CELL(abcABC):  300.000000 300.000000 300.000000 90.000000 90.000000 90.000000 cell{atomic_unit}  Traj: positions{angstrom}   Bead:       52
H 0.01506405730117356 2.4403868526312767e-17 1.4345970630226647e-17
1
CELL(abcABC):  300.000000 300.000000 300.000000 90.000000 90.000000 90.000000 cell{atomic_unit}  Traj: positions{angstrom}   Bead:       53
H 0.021958617142351235 2.61789007380059e-17 4.133921610376976e-17
1
CELL(abcABC):  300.000000 300.000000 300.000000 90.000000 90.000000 90.000000 cell{atomic_unit}  Traj: positions{angstrom}   Bead:       54
H 0.02972206974896229 4.055398045318469e-18 1.6238500352680764e-17
1
CELL(abcABC):  300.000000 300.000000 300.000000 90.000000 90.000000 90.000000 cell{atomic_unit}  Traj: positions{angstrom}   Bead:       55
H 0.03860271603534184 -3.29072555872955e-17 -1.0187759802767e-18
1
CELL(abcABC):  300.000000 300.000000 300.000000 90.000000 90.000000 90.000000 cell{atomic_unit}  Traj: positions{angstrom}   Bead:       56
H 0.04877306652890603 -5.794308966238109e-17 -5.097483746265184e-17
1
CELL(abcABC):  300.000000 300.000000 300.000000 90.000000 90.000000 90.000000 cell{atomic_unit}  Traj: positions{angstrom}   Bead:       57
H 0.06010240111693046 -8.352394994547831e-17 -6.70087997159744e-17
1
CELL(abcABC):  300.000000 300.000000 300.000000 90.000000 90.000000 90.000000 cell{atomic_unit}  Traj: positions{angstrom}   Bead:       58
H 0.07238403444940414 -7.992379496944505e-17 4.827526707485864e-18
1
CELL(abcABC):  300.000000 300.000000 300.000000 90.000000 90.000000 90.000000 cell{atomic_unit}  Traj: positions{angstrom}   Bead:       59
H 0.08541165377787313 -3.165068634541118e-17 7.630696319862338e-18
1
CELL(abcABC):  300.000000 300.000000 300.000000 90.000000 90.000000 90.000000 cell{atomic_unit}  Traj: positions{angstrom}   Bead:       60
H 0.09897885996572883 2.7785557007388397e-18 1.2219682633461224e-17
1
CELL(abcABC):  300.000000 300.000000 300.000000 90.000000 90.000000 90.000000 cell{atomic_unit}  Traj: positions{angstrom}   Bead:       61
H 0.11287948017550206 3.2129264199175848e-18 1.1853636566662234e-17
1
CELL(abcABC):  300.000000 300.000000 300.000000 90.000000 90.000000 90.000000 cell{atomic_unit}  Traj: positions{angstrom}   Bead:       62
H 0.12690752762290944 -2.3034560943372333e-17 4.192958844743342e-17
1
CELL(abcABC):  300.000000 300.000000 300.000000 90.000000 90.000000 90.000000 cell{atomic_unit}  Traj: positions{angstrom}   Bead:       63
H 0.1408572970889559 -3.397523156677493e-17 1.2335440166194623e-17
1
CELL(abcABC):  300.000000 300.000000 300.000000 90.000000 90.000000 90.000000 cell{atomic_unit}  Traj: positions{angstrom}   Bead:       64
H 0.15452310328504976 1.4784820715146512e-18 6.520148194084276e-18
1
CELL(abcABC):  300.000000 300.000000 300.000000 90.000000 90.000000 90.000000 cell{atomic_unit}  Traj: positions{angstrom}   Bead:       65
H 0.1676997826907768 1.802528770533035e-17 -1.567802600346912e-17
1
CELL(abcABC):  300.000000 300.000000 300.000000 90.000000 90.000000 90.000000 cell{atomic_unit}  Traj: positions{angstrom}   Bead:       66
H 0.18018220435336424 -5.383627405397934e-18 -2.1289442290272264e-17
1
CELL(abcABC):  300.000000 300.000000 300.000000 90.000000 90.000000 90.000000 cell{atomic_unit}  Traj: positions{angstrom}   Bead:       67
H 0.19183490727355268 7.178978838563888e-18 -5.122469433128882e-17
1
CELL(abcABC):  300.000000 300.000000 300.000000 90.000000 90.000000 90.000000 cell{atomic_unit}  Traj: positions{angstrom}   Bead:       68
H 0.20280039236660008 5.201996313184812e-17 -5.427926368629332e-19
1
CELL(abcABC):  300.000000 300.000000 300.000000 90.000000 90.000000 90.000000 cell{atomic_unit}  Traj: positions{angstrom}   Bead:       69
H 0.21329060943887654 6.125542401169996e-17 1.0999453511635146e-17
1
CELL(abcABC):  300.000000 300.000000 300.000000 90.000000 90.000000 90.000000 cell{atomic_unit}  Traj: positions{angstrom}   Bead:       70
H 0.22351788629863084 3.3704904283017785e-17 2.4701062107622816e-17
1
CELL(abcABC):  300.000000 300.000000 300.000000 90.000000 90.000000 90.000000 cell{atomic_unit}  Traj: positions{angstrom}   Bead:       71
H 0.23369473959118722 3.298680644367807e-17 5.84064941720776e-17
1
CELL(abcABC):  300.000000 300.000000 300.000000 90.000000 90.000000 90.000000 cell{atomic_unit}  Traj: positions{angstrom}   Bead:       72
H 0.24403397432527904 2.6374049743545836e-17 4.0160179619387303e-17
1
CELL(abcABC):  300.000000 300.000000 300.000000 90.000000 90.000000 90.000000 cell{atomic_unit}  Traj: positions{angstrom}   Bead:       73
H 0.25474879207520235 -2.4315065066771777e-17 9.63886272510737e-18
1
CELL(abcABC):  300.000000 300.000000 300.000000 90.000000 90.000000 90.000000 cell{atomic_unit}  Traj: positions{angstrom}   Bead:       74
H 0.26605262804187624 -5.999928455695045e-17 -9.104990786665008e-18
1
CELL(abcABC):  300.000000 300.000000 300.000000 90.000000 90.000000 90.000000 cell{atomic_unit}  Traj: positions{angstrom}   Bead:       75
H 0.27815941921411347 -5.836759071328536e-17 -3.788582520895188e-18
1
CELL(abcABC):  300.000000 300.000000 300.000000 90.000000 90.000000 90.000000 cell{atomic_unit}  Traj: positions{angstrom}   Bead:       76
H 0.29128374355978365 -1.0321916891959287e-17 -1.7120936233192033e-17
1
CELL(abcABC):  300.000000 300.000000 300.000000 90.000000 90.000000 90.000000 cell{atomic_unit}  Traj: positions{angstrom}   Bead:       77
H 0.3056405505899939 3.234871212058866e-17 -1.3861355373949899e-18
1
CELL(abcABC):  300.000000 300.000000 300.000000 90.000000 90.000000 90.000000 cell{atomic_unit}  Traj: positions{angstrom}   Bead:       78
H 0.321401840692487 6.0591792039030384e-18 -4.981660494033925e-17
1
CELL(abcABC):  300.000000 300.000000 300.000000 90.000000 90.000000 90.000000 cell{atomic_unit}  Traj: positions{angstrom}   Bead:       79
H 0.33856567685536326 -2.524644932626441e-18 -1.1274555506077743e-17
1
CELL(abcABC):  300.000000 300.000000 300.000000 90.000000 90.000000 90.000000 cell{atomic_unit}  Traj: positions{angstrom}   Bead:       80
H 0.3570871238102377 1.1287084835125245e-17 7.095716256789698e-18
1
CELL(abcABC):  300.000000 300.000000 300.000000 90.000000 90.000000 90.000000 cell{atomic_unit}  Traj: positions{angstrom}   Bead:       81
H 0.376922199052745 -5.702703527251759e-17 -9.501611340536378e-18
1
CELL(abcABC):  300.000000 300.000000 300.000000 90.000000 90.000000 90.000000 cell{atomic_unit}  Traj: positions{angstrom}   Bead:       82
H 0.3980278315131523 -3.6691590763265366e-17 -6.146467441638422e-17
1
CELL(abcABC):  300.000000 300.000000 300.000000 90.000000 90.000000 90.000000 cell{atomic_unit}  Traj: positions{angstrom}   Bead:       83
H 0.4203618676809825 7.804958367592137e-18 3.0683366282212535e-19
1
CELL(abcABC):  300.000000 300.000000 300.000000 90.000000 90.000000 90.000000 cell{atomic_unit}  Traj: positions{angstrom}   Bead:       84
H 0.44388311924855417 -9.603607038403467e-18 -2.2569422442857213e-17
1
CELL(abcABC):  300.000000 300.000000 300.000000 90.000000 90.000000 90.000000 cell{atomic_unit}  Traj: positions{angstrom}   Bead:       85
H 0.46855109574296505 -1.700223999850562e-18 1.8780219156612284e-17
1
CELL(abcABC):  300.000000 300.000000 300.000000 90.000000 90.000000 90.000000 cell{atomic_unit}  Traj: positions{angstrom}   Bead:       86
H 0.4943261178037994 3.136611793003169e-17 1.4025692171469094e-17
1
CELL(abcABC):  300.000000 300.000000 300.000000 90.000000 90.000000 90.000000 cell{atomic_unit}  Traj: positions{angstrom}   Bead:       87
H 0.5211690343587869 2.2329147955526377e-17 2.35665079486664e-17
1
CELL(abcABC):  300.000000 300.000000 300.000000 90.000000 90.000000 90.000000 cell{atomic_unit}  Traj: positions{angstrom}   Bead:       88
H 0.5490413103024752 2.0680566316588535e-17 1.6474787652727705e-17
1
CELL(abcABC):  300.000000 300.000000 300.000000 90.000000 90.000000 90.000000 cell{atomic_unit}  Traj: positions{angstrom}   Bead:       89
H 0.5779043582140144 -3.060131694400988e-18 1.505460227686075e-17
1
CELL(abcABC):  300.000000 300.000000 300.000000 90.000000 90.000000 90.000000 cell{atomic_unit}  Traj: positions{angstrom}   Bead:       90
H 0.6077194427722812 1.5968507109962752e-17 -1.5002255839145908e-17
1
CELL(abcABC):  300.000000 300.000000 300.000000 90.000000 90.000000 90.000000 cell{atomic_unit}  Traj: positions{angstrom}   Bead:       91
H 0.6384475233783911 6.6212922092761966e-18 2.4630806006726934e-17
1
CELL(abcABC):  300.000000 300.000000 300.000000 90.000000 90.000000 90.000000 cell{atomic_unit}  Traj: positions{angstrom}   Bead:       92
H 0.6700483307407331 1.2244728198398723e-18 -1.4354432642646628e-17
1
CELL(abcABC):  300.000000 300.000000 300.000000 90.000000 90.000000 90.000000 cell{atomic_unit}  Traj: positions{angstrom}   Bead:       93
H 0.7024803579849044 8.168770124306621e-18 -1.9637001901845692e-17
1
CELL(abcABC):  300.000000 300.000000 300.000000 90.000000 90.000000 90.000000 cell{atomic_unit}  Traj: positions{angstrom}   Bead:       94
H 0.7356999402363414 1.3642622285734811e-17 1.7225314918722903e-18
1
CELL(abcABC):  300.000000 300.000000 300.000000 90.000000 90.000000 90.000000 cell{atomic_unit}  Traj: positions{angstrom}   Bead:       95
H 0.7696609628507318 3.33685089605416e-18 6.360786537117538e-18
1
CELL(abcABC):  300.000000 300.000000 300.000000 90.000000 90.000000 90.000000 cell{atomic_unit}  Traj: positions{angstrom}   Bead:       96
H 0.8043136518877259 -9.107196085712131e-18 -3.26681305156178e-18
1
CELL(abcABC):  300.000000 300.000000 300.000000 90.000000 90.000000 90.000000 cell{atomic_unit}  Traj: positions{angstrom}   Bead:       97
H 0.8396041959000602 -4.015977111303015e-19 5.33343615337964e-18
1
CELL(abcABC):  300.000000 300.000000 300.000000 90.000000 90.000000 90.000000 cell{atomic_unit}  Traj: positions{angstrom}   Bead:       98
H 0.8754737903050035 2.0199552925921303e-17 -4.278893909293796e-18
1
CELL(abcABC):  300.000000 300.000000 300.000000 90.000000 90.000000 90.000000 cell{atomic_unit}  Traj: positions{angstrom}   Bead:       99
H 0.9118575169766207 -3.958652820965487e-17 -6.862220841842237e-19
