1
CELL(abcABC):  300.000000 300.000000 300.000000 90.000000 90.000000 90.000000 cell{atomic_unit}  Traj: positions{atomic_unit}   Bead:       0
H -0.007314763502064873 1.4094530103269497e-18 7.390897248145996e-19
1
CELL(abcABC):  300.000000 300.000000 300.000000 90.000000 90.000000 90.000000 cell{atomic_unit}  Traj: positions{atomic_unit}   Bead:       1
H -0.007314151559276546 1.4134625818599223e-18 8.024681151909095e-19
1
CELL(abcABC):  300.000000 300.000000 300.000000 90.000000 90.000000 90.000000 cell{atomic_unit}  Traj: positions{atomic_unit}   Bead:       2
H -0.007312880487506291 1.3434790895831442e-18 9.375591238663825e-19
1
CELL(abcABC):  300.000000 300.000000 300.000000 90.000000 90.000000 90.000000 cell{atomic_unit}  Traj: positions{atomic_unit}   Bead:       3
H -0.007310856149026647 1.008552886566363e-18 6.723129185314757e-19
1
CELL(abcABC):  300.000000 300.000000 300.000000 90.000000 90.000000 90.000000 cell{atomic_unit}  Traj: positions{atomic_unit}   Bead:       4
H -0.0073079379264476985 1.1352495376562717e-18 7.432683529791885e-19
1
CELL(abcABC):  300.000000 300.000000 300.000000 90.000000 90.000000 90.000000 cell{atomic_unit}  Traj: positions{atomic_unit}   Bead:       5
H -0.007303939436822588 7.711025263683572e-19 5.467764238684804e-19
1
CELL(abcABC):  300.000000 300.000000 300.000000 90.000000 90.000000 90.000000 cell{atomic_unit}  Traj: positions{atomic_unit}   Bead:       6
H -0.007298629495317124 5.056753916346816e-19 3.843795579987054e-19
1
CELL(abcABC):  300.000000 300.000000 300.000000 90.000000 90.000000 90.000000 cell{atomic_unit}  Traj: positions{atomic_unit}   Bead:       7
H -0.007291733337837211 1.4369045719813662e-19 2.8359159766177585e-19
1
CELL(abcABC):  300.000000 300.000000 300.000000 90.000000 90.000000 90.000000 cell{atomic_unit}  Traj: positions{atomic_unit}   Bead:       8
H -0.007282934113747551 2.955394053287189e-19 1.8371433381136146e-19
1
CELL(abcABC):  300.000000 300.000000 300.000000 90.000000 90.000000 90.000000 cell{atomic_unit}  Traj: positions{atomic_unit}   Bead:       9
H -0.007271874661151716 3.2675166152160563e-19 1.160986374670954e-19
1
CELL(abcABC):  300.000000 300.000000 300.000000 90.000000 90.000000 90.000000 cell{atomic_unit}  Traj: positions{atomic_unit}   Bead:       10
H -0.00725815957806032 3.896131345004419e-19 8.337313593701519e-20
1
CELL(abcABC):  300.000000 300.000000 300.000000 90.000000 90.000000 90.000000 cell{atomic_unit}  Traj: positions{atomic_unit}   Bead:       11
H -0.007241357603076752 3.058202205635656e-19 1.2487363365074109e-19
1
CELL(abcABC):  300.000000 300.000000 300.000000 90.000000 90.000000 90.000000 cell{atomic_unit}  Traj: positions{atomic_unit}   Bead:       12
H -0.007221004318909314 3.1732776689017837e-19 1.569410427709375e-20
1
CELL(abcABC):  300.000000 300.000000 300.000000 90.000000 90.000000 90.000000 cell{atomic_unit}  Traj: positions{atomic_unit}   Bead:       13
H -0.007196605191010994 2.4913194491965036e-19 -6.675009674814052e-20
1
CELL(abcABC):  300.000000 300.000000 300.000000 90.000000 90.000000 90.000000 cell{atomic_unit}  Traj: positions{atomic_unit}   Bead:       14
H -0.0071676389518982786 2.222619724582544e-19 4.688406015125144e-20
1
CELL(abcABC):  300.000000 300.000000 300.000000 90.000000 90.000000 90.000000 cell{atomic_unit}  Traj: positions{atomic_unit}   Bead:       15
H -0.007133561339163234 1.4311000423577133e-19 1.6971003816825177e-20
1
CELL(abcABC):  300.000000 300.000000 300.000000 90.000000 90.000000 90.000000 cell{atomic_unit}  Traj: positions{atomic_unit}   Bead:       16
H -0.007093809191836328 1.6215556479688656e-19 -1.135460000353724e-19
1
CELL(abcABC):  300.000000 300.000000 300.000000 90.000000 90.000000 90.000000 cell{atomic_unit}  Traj: positions{atomic_unit}   Bead:       17
H -0.007047804905564736 6.982562118347241e-20 -1.9783365222094522e-19
1
CELL(abcABC):  300.000000 300.000000 300.000000 90.000000 90.000000 90.000000 cell{atomic_unit}  Traj: positions{atomic_unit}   Bead:       18
H -0.006994961242044307 9.806750408887602e-20 -3.2005993681181496e-19
1
CELL(abcABC):  300.000000 300.000000 300.000000 90.000000 90.000000 90.000000 cell{atomic_unit}  Traj: positions{atomic_unit}   Bead:       19
H -0.0069346864823064975 -3.996565914438382e-20 -4.509240736786837e-19
1
CELL(abcABC):  300.000000 300.000000 300.000000 90.000000 90.000000 90.000000 cell{atomic_unit}  Traj: positions{atomic_unit}   Bead:       20
H -0.006866389906862247 -4.1411627260078846e-20 -4.830012253543517e-19
1
CELL(abcABC):  300.000000 300.000000 300.000000 90.000000 90.000000 90.000000 cell{atomic_unit}  Traj: positions{atomic_unit}   Bead:       21
H -0.006789487578417814 -2.044272193625458e-19 -7.179399754612962e-19
1
CELL(abcABC):  300.000000 300.000000 300.000000 90.000000 90.000000 90.000000 cell{atomic_unit}  Traj: positions{atomic_unit}   Bead:       22
H -0.006703408395005948 -3.436734300118557e-19 -9.174449716240822e-19
1
CELL(abcABC):  300.000000 300.000000 300.000000 90.000000 90.000000 90.000000 cell{atomic_unit}  Traj: positions{atomic_unit}   Bead:       23
H -0.006607600373053193 -4.584129314724571e-19 -7.162956966303563e-19
1
CELL(abcABC):  300.000000 300.000000 300.000000 90.000000 90.000000 90.000000 cell{atomic_unit}  Traj: positions{atomic_unit}   Bead:       24
H -0.006501537111294281 -5.207483912281225e-19 -7.5335990251184735e-19
1
CELL(abcABC):  300.000000 300.000000 300.000000 90.000000 90.000000 90.000000 cell{atomic_unit}  Traj: positions{atomic_unit}   Bead:       25
H -0.006384724377741207 -6.714946055328712e-19 -9.076653478295925e-19
1
CELL(abcABC):  300.000000 300.000000 300.000000 90.000000 90.000000 90.000000 cell{atomic_unit}  Traj: positions{atomic_unit}   Bead:       26
H -0.006256706753339433 -7.718669298927848e-19 -9.774358765118e-19
1
CELL(abcABC):  300.000000 300.000000 300.000000 90.000000 90.000000 90.000000 cell{atomic_unit}  Traj: positions{atomic_unit}   Bead:       27
H -0.006117074257743094 -6.781507257154736e-19 -9.331177369101822e-19
1
CELL(abcABC):  300.000000 300.000000 300.000000 90.000000 90.000000 90.000000 cell{atomic_unit}  Traj: positions{atomic_unit}   Bead:       28
H -0.005965468875081273 -5.817454423150929e-19 -8.780300285685138e-19
1
CELL(abcABC):  300.000000 300.000000 300.000000 90.000000 90.000000 90.000000 cell{atomic_unit}  Traj: positions{atomic_unit}   Bead:       29
H -0.005801590890948326 -3.6701618223145584e-19 -6.619568695188496e-19
1
CELL(abcABC):  300.000000 300.000000 300.000000 90.000000 90.000000 90.000000 cell{atomic_unit}  Traj: positions{atomic_unit}   Bead:       30
H -0.005625204946418189 -1.9313713284762657e-19 -4.319035402315213e-19
1
CELL(abcABC):  300.000000 300.000000 300.000000 90.000000 90.000000 90.000000 cell{atomic_unit}  Traj: positions{atomic_unit}   Bead:       31
H -0.0054361457109377695 9.145997290874503e-20 -8.003865325387483e-20
1
CELL(abcABC):  300.000000 300.000000 300.000000 90.000000 90.000000 90.000000 cell{atomic_unit}  Traj: positions{atomic_unit}   Bead:       32
H -0.005234323073765939 1.1518137787718696e-19 -1.9809104759103524e-20
1
CELL(abcABC):  300.000000 300.000000 300.000000 90.000000 90.000000 90.000000 cell{atomic_unit}  Traj: positions{atomic_unit}   Bead:       33
H -0.005019726753435113 1.2843290207477324e-19 -3.6169274988953474e-20
1
CELL(abcABC):  300.000000 300.000000 300.000000 90.000000 90.000000 90.000000 cell{atomic_unit}  Traj: positions{atomic_unit}   Bead:       34
H -0.004792430226728354 8.727528075214316e-20 -3.531818383420231e-20
1
CELL(abcABC):  300.000000 300.000000 300.000000 90.000000 90.000000 90.000000 cell{atomic_unit}  Traj: positions{atomic_unit}   Bead:       35
H -0.004552593883043522 1.079227622466866e-19 1.76517385927513e-20
1
CELL(abcABC):  300.000000 300.000000 300.000000 90.000000 90.000000 90.000000 cell{atomic_unit}  Traj: positions{atomic_unit}   Bead:       36
H -0.00430046731685606 6.831370705487035e-20 4.558643401582205e-20
1
CELL(abcABC):  300.000000 300.000000 300.000000 90.000000 90.000000 90.000000 cell{atomic_unit}  Traj: positions{atomic_unit}   Bead:       37
H -0.004036390680322071 3.679060204644555e-20 7.914380224767837e-21
1
CELL(abcABC):  300.000000 300.000000 300.000000 90.000000 90.000000 90.000000 cell{atomic_unit}  Traj: positions{atomic_unit}   Bead:       38
H -0.003760795029835865 6.608766687759234e-20 3.1442198729597408e-21
1
CELL(abcABC):  300.000000 300.000000 300.000000 90.000000 90.000000 90.000000 cell{atomic_unit}  Traj: positions{atomic_unit}   Bead:       39
H -0.0034742016144406326 8.42427016767972e-20 2.5551909381114897e-20
1
CELL(abcABC):  300.000000 300.000000 300.000000 90.000000 90.000000 90.000000 cell{atomic_unit}  Traj: positions{atomic_unit}   Bead:       40
H -0.003177220070172373 5.0444028433159704e-20 -5.74428468456295e-21
1
CELL(abcABC):  300.000000 300.000000 300.000000 90.000000 90.000000 90.000000 cell{atomic_unit}  Traj: positions{atomic_unit}   Bead:       41
H -0.002870545502396693 1.616851380722303e-20 -7.998279388197256e-20
1
CELL(abcABC):  300.000000 300.000000 300.000000 90.000000 90.000000 90.000000 cell{atomic_unit}  Traj: positions{atomic_unit}   Bead:       42
H -0.002554954457598013 2.550014389368113e-20 -9.876610620471699e-20
1
CELL(abcABC):  300.000000 300.000000 300.000000 90.000000 90.000000 90.000000 cell{atomic_unit}  Traj: positions{atomic_unit}   Bead:       43
H -0.002231299806452732 -2.6663566113990417e-20 -5.877851804911898e-20
1
CELL(abcABC):  300.000000 300.000000 300.000000 90.000000 90.000000 90.000000 cell{atomic_unit}  Traj: positions{atomic_unit}   Bead:       44
H -0.0019005045808558481 3.9603009427033725e-20 9.748965799243597e-22
1
CELL(abcABC):  300.000000 300.000000 300.000000 90.000000 90.000000 90.000000 cell{atomic_unit}  Traj: positions{atomic_unit}   Bead:       45
H -0.0015635548283253553 -4.910207088233519e-21 2.1486013092396203e-20
1
CELL(abcABC):  300.000000 300.000000 300.000000 90.000000 90.000000 90.000000 cell{atomic_unit}  Traj: positions{atomic_unit}   Bead:       46
H -0.0012214915673077274 5.146247637643217e-21 -2.611664088785678e-20
1
CELL(abcABC):  300.000000 300.000000 300.000000 90.000000 90.000000 90.000000 cell{atomic_unit}  Traj: positions{atomic_unit}   Bead:       47
H -0.0008754019457742873 -3.2671323434105403e-20 -3.239356275414656e-20
1
CELL(abcABC):  300.000000 300.000000 300.000000 90.000000 90.000000 90.000000 cell{atomic_unit}  Traj: positions{atomic_unit}   Bead:       48
H -0.0005264097225739867 5.427638885427883e-20 -6.674258332756477e-20
1
CELL(abcABC):  300.000000 300.000000 300.000000 90.000000 90.000000 90.000000 cell{atomic_unit}  Traj: positions{atomic_unit}   Bead:       49
H -0.00017566520577471842 -3.406955600695462e-21 -2.5489838771326664e-20
1
CELL(abcABC):  300.000000 300.000000 300.000000 90.000000 90.000000 90.000000 cell{atomic_unit}  Traj: positions{atomic_unit}   Bead:       50
H 0.00017566520577471187 1.0466457900819225e-19 3.2567823753009047e-20
1
CELL(abcABC):  300.000000 300.000000 300.000000 90.000000 90.000000 90.000000 cell{atomic_unit}  Traj: positions{atomic_unit}   Bead:       51
H 0.0005264097225739802 4.810030559098435e-20 -1.0217827112152354e-20
1
CELL(abcABC):  300.000000 300.000000 300.000000 90.000000 90.000000 90.000000 cell{atomic_unit}  Traj: positions{atomic_unit}   Bead:       52
H 0.0008754019457742806 7.93851240655207e-20 -3.318418120016206e-20
1
CELL(abcABC):  300.000000 300.000000 300.000000 90.000000 90.000000 90.000000 cell{atomic_unit}  Traj: positions{atomic_unit}   Bead:       53
H 0.001221491567307721 3.606333286176299e-21 1.5506159130182748e-20
1
CELL(abcABC):  300.000000 300.000000 300.000000 90.000000 90.000000 90.000000 cell{atomic_unit}  Traj: positions{atomic_unit}   Bead:       54
H 0.0015635548283253493 1.9607283538788763e-20 -3.332594914066037e-20
1
CELL(abcABC):  300.000000 300.000000 300.000000 90.000000 90.000000 90.000000 cell{atomic_unit}  Traj: positions{atomic_unit}   Bead:       55
H 0.0019005045808558423 -2.918681766111449e-20 -5.209071016099049e-20
1
CELL(abcABC):  300.000000 300.000000 300.000000 90.000000 90.000000 90.000000 cell{atomic_unit}  Traj: positions{atomic_unit}   Bead:       56
H 0.0022312998064527257 4.481646429064337e-20 -6.593642913971577e-20
1
CELL(abcABC):  300.000000 300.000000 300.000000 90.000000 90.000000 90.000000 cell{atomic_unit}  Traj: positions{atomic_unit}   Bead:       57
H 0.002554954457598007 -3.607852048101881e-20 -5.351756088332269e-20
1
CELL(abcABC):  300.000000 300.000000 300.000000 90.000000 90.000000 90.000000 cell{atomic_unit}  Traj: positions{atomic_unit}   Bead:       58
H 0.002870545502396688 -5.643062098121178e-20 -1.1213980324005399e-20
1
CELL(abcABC):  300.000000 300.000000 300.000000 90.000000 90.000000 90.000000 cell{atomic_unit}  Traj: positions{atomic_unit}   Bead:       59
H 0.0031772200701723667 -7.864194610784386e-20 1.0135205327902475e-20
1
CELL(abcABC):  300.000000 300.000000 300.000000 90.000000 90.000000 90.000000 cell{atomic_unit}  Traj: positions{atomic_unit}   Bead:       60
H 0.0034742016144406265 -3.6230287710893305e-20 7.56300843291055e-20
1
CELL(abcABC):  300.000000 300.000000 300.000000 90.000000 90.000000 90.000000 cell{atomic_unit}  Traj: positions{atomic_unit}   Bead:       61
H 0.00376079502983586 -2.0199395698793632e-21 1.0252232463231813e-19
1
CELL(abcABC):  300.000000 300.000000 300.000000 90.000000 90.000000 90.000000 cell{atomic_unit}  Traj: positions{atomic_unit}   Bead:       62
H 0.004036390680322066 2.5941883990606282e-20 1.7711528752560584e-20
1
CELL(abcABC):  300.000000 300.000000 300.000000 90.000000 90.000000 90.000000 cell{atomic_unit}  Traj: positions{atomic_unit}   Bead:       63
H 0.004300467316856055 4.616560601692341e-20 -3.214741743864384e-20
1
CELL(abcABC):  300.000000 300.000000 300.000000 90.000000 90.000000 90.000000 cell{atomic_unit}  Traj: positions{atomic_unit}   Bead:       64
H 0.004552593883043517 -2.7380890382886334e-21 -4.879849376415885e-20
1
CELL(abcABC):  300.000000 300.000000 300.000000 90.000000 90.000000 90.000000 cell{atomic_unit}  Traj: positions{atomic_unit}   Bead:       65
H 0.004792430226728351 1.5640458421242484e-20 -9.511032059530721e-20
1
CELL(abcABC):  300.000000 300.000000 300.000000 90.000000 90.000000 90.000000 cell{atomic_unit}  Traj: positions{atomic_unit}   Bead:       66
H 0.00501972675343511 4.273050745940163e-20 -6.80228331215047e-20
1
CELL(abcABC):  300.000000 300.000000 300.000000 90.000000 90.000000 90.000000 cell{atomic_unit}  Traj: positions{atomic_unit}   Bead:       67
H 0.005234323073765934 3.660430164052057e-20 -4.9237355009121464e-20
1
CELL(abcABC):  300.000000 300.000000 300.000000 90.000000 90.000000 90.000000 cell{atomic_unit}  Traj: positions{atomic_unit}   Bead:       68
H 0.005436145710937765 5.0752385102241544e-21 -4.826293973046666e-20
1
CELL(abcABC):  300.000000 300.000000 300.000000 90.000000 90.000000 90.000000 cell{atomic_unit}  Traj: positions{atomic_unit}   Bead:       69
H 0.005625204946418185 1.8932392216357475e-22 -1.9848468908926386e-20
1
CELL(abcABC):  300.000000 300.000000 300.000000 90.000000 90.000000 90.000000 cell{atomic_unit}  Traj: positions{atomic_unit}   Bead:       70
H 0.005801590890948323 -6.54813478452901e-20 2.412289966353937e-20
1
CELL(abcABC):  300.000000 300.000000 300.000000 90.000000 90.000000 90.000000 cell{atomic_unit}  Traj: positions{atomic_unit}   Bead:       71
H 0.00596546887508127 -5.347026327022005e-20 3.2359292917331195e-20
1
CELL(abcABC):  300.000000 300.000000 300.000000 90.000000 90.000000 90.000000 cell{atomic_unit}  Traj: positions{atomic_unit}   Bead:       72
H 0.006117074257743092 -5.549235364186373e-20 2.461550348982909e-20
1
CELL(abcABC):  300.000000 300.000000 300.000000 90.000000 90.000000 90.000000 cell{atomic_unit}  Traj: positions{atomic_unit}   Bead:       73
H 0.0062567067533394315 -2.5930778010545302e-20 1.5524293167970333e-20
1
CELL(abcABC):  300.000000 300.000000 300.000000 90.000000 90.000000 90.000000 cell{atomic_unit}  Traj: positions{atomic_unit}   Bead:       74
H 0.006384724377741204 9.961733836236572e-21 3.0561708613924904e-20
1
CELL(abcABC):  300.000000 300.000000 300.000000 90.000000 90.000000 90.000000 cell{atomic_unit}  Traj: positions{atomic_unit}   Bead:       75
H 0.006501537111294279 -1.7391504453081047e-20 4.9977907325237347e-20
1
CELL(abcABC):  300.000000 300.000000 300.000000 90.000000 90.000000 90.000000 cell{atomic_unit}  Traj: positions{atomic_unit}   Bead:       76
H 0.006607600373053191 3.2945597966950033e-20 3.3349284368720207e-20
1
CELL(abcABC):  300.000000 300.000000 300.000000 90.000000 90.000000 90.000000 cell{atomic_unit}  Traj: positions{atomic_unit}   Bead:       77
H 0.006703408395005947 3.897149871318248e-20 2.309016948005574e-20
1
CELL(abcABC):  300.000000 300.000000 300.000000 90.000000 90.000000 90.000000 cell{atomic_unit}  Traj: positions{atomic_unit}   Bead:       78
H 0.006789487578417811 5.651441111660714e-20 -3.3070671849831067e-21
1
CELL(abcABC):  300.000000 300.000000 300.000000 90.000000 90.000000 90.000000 cell{atomic_unit}  Traj: positions{atomic_unit}   Bead:       79
H 0.0068663899068622455 1.6820797034862882e-20 -4.8508611386362194e-20
1
CELL(abcABC):  300.000000 300.000000 300.000000 90.000000 90.000000 90.000000 cell{atomic_unit}  Traj: positions{atomic_unit}   Bead:       80
H 0.0069346864823064975 4.969983708536635e-20 -4.4364234954693984e-20
1
CELL(abcABC):  300.000000 300.000000 300.000000 90.000000 90.000000 90.000000 cell{atomic_unit}  Traj: positions{atomic_unit}   Bead:       81
H 0.006994961242044306 -1.9433839627312384e-20 -1.2666844368236708e-20
1
CELL(abcABC):  300.000000 300.000000 300.000000 90.000000 90.000000 90.000000 cell{atomic_unit}  Traj: positions{atomic_unit}   Bead:       82
H 0.007047804905564732 -4.224508872212977e-21 -3.4309424714777034e-20
1
CELL(abcABC):  300.000000 300.000000 300.000000 90.000000 90.000000 90.000000 cell{atomic_unit}  Traj: positions{atomic_unit}   Bead:       83
H 0.007093809191836326 -6.56058793439236e-20 3.136411313533076e-21
1
CELL(abcABC):  300.000000 300.000000 300.000000 90.000000 90.000000 90.000000 cell{atomic_unit}  Traj: positions{atomic_unit}   Bead:       84
H 0.007133561339163231 1.0377982425760343e-20 2.4446270377111393e-20
1
CELL(abcABC):  300.000000 300.000000 300.000000 90.000000 90.000000 90.000000 cell{atomic_unit}  Traj: positions{atomic_unit}   Bead:       85
H 0.007167638951898278 -4.253815648349237e-20 1.7877343283458328e-20
1
CELL(abcABC):  300.000000 300.000000 300.000000 90.000000 90.000000 90.000000 cell{atomic_unit}  Traj: positions{atomic_unit}   Bead:       86
H 0.007196605191010994 1.5912045042502614e-20 2.6603961701753927e-20
1
CELL(abcABC):  300.000000 300.000000 300.000000 90.000000 90.000000 90.000000 cell{atomic_unit}  Traj: positions{atomic_unit}   Bead:       87
H 0.007221004318909314 -2.5254926086461253e-20 2.6797329243242873e-20
1
CELL(abcABC):  300.000000 300.000000 300.000000 90.000000 90.000000 90.000000 cell{atomic_unit}  Traj: positions{atomic_unit}   Bead:       88
H 0.00724135760307675 1.440674765591873e-20 -1.0657410869806106e-21
1
CELL(abcABC):  300.000000 300.000000 300.000000 90.000000 90.000000 90.000000 cell{atomic_unit}  Traj: positions{atomic_unit}   Bead:       89
H 0.00725815957806032 -4.9067108793778867e-20 -6.053734097779802e-21
1
CELL(abcABC):  300.000000 300.000000 300.000000 90.000000 90.000000 90.000000 cell{atomic_unit}  Traj: positions{atomic_unit}   Bead:       90
H 0.007271874661151716 1.797176510260016e-20 -2.713226355546163e-20
1
CELL(abcABC):  300.000000 300.000000 300.000000 90.000000 90.000000 90.000000 cell{atomic_unit}  Traj: positions{atomic_unit}   Bead:       91
H 0.007282934113747551 -1.2269874239516587e-20 -1.413068743924007e-20
1
CELL(abcABC):  300.000000 300.000000 300.000000 90.000000 90.000000 90.000000 cell{atomic_unit}  Traj: positions{atomic_unit}   Bead:       92
H 0.007291733337837211 2.986922847055967e-20 -2.7505990563404404e-21
1
CELL(abcABC):  300.000000 300.000000 300.000000 90.000000 90.000000 90.000000 cell{atomic_unit}  Traj: positions{atomic_unit}   Bead:       93
H 0.007298629495317124 -1.287393466693634e-20 -4.580160745942632e-21
1
CELL(abcABC):  300.000000 300.000000 300.000000 90.000000 90.000000 90.000000 cell{atomic_unit}  Traj: positions{atomic_unit}   Bead:       94
H 0.007303939436822588 1.8985693915308995e-20 -1.5491685343535868e-21
1
CELL(abcABC):  300.000000 300.000000 300.000000 90.000000 90.000000 90.000000 cell{atomic_unit}  Traj: positions{atomic_unit}   Bead:       95
H 0.0073079379264476985 2.7549263830351467e-21 1.1168296098687471e-21
1
CELL(abcABC):  300.000000 300.000000 300.000000 90.000000 90.000000 90.000000 cell{atomic_unit}  Traj: positions{atomic_unit}   Bead:       96
H 0.007310856149026647 1.345333101610693e-20 -4.028549938213599e-21
1
CELL(abcABC):  300.000000 300.000000 300.000000 90.000000 90.000000 90.000000 cell{atomic_unit}  Traj: positions{atomic_unit}   Bead:       97
H 0.007312880487506291 -5.905411752333302e-21 2.313357116292677e-21
1
CELL(abcABC):  300.000000 300.000000 300.000000 90.000000 90.000000 90.000000 cell{atomic_unit}  Traj: positions{atomic_unit}   Bead:       98
H 0.007314151559276543 1.5557458941851278e-20 4.804169863018723e-21
1
CELL(abcABC):  300.000000 300.000000 300.000000 90.000000 90.000000 90.000000 cell{atomic_unit}  Traj: positions{atomic_unit}   Bead:       99
H 0.007314763502064871 -1.298745457460066e-20 6.911560918172499e-21
