1
CELL(abcABC):  300.000000 300.000000 300.000000 90.000000 90.000000 90.000000 cell{atomic_unit}  Traj: positions{atomic_unit}   Bead:       0
H -0.007315124080754505 2.98530539492706e-17 1.6609876314629486e-17
1
CELL(abcABC):  300.000000 300.000000 300.000000 90.000000 90.000000 90.000000 cell{atomic_unit}  Traj: positions{atomic_unit}   Bead:       1
H -0.007314521313024156 3.811788837334662e-17 2.495355570900911e-17
1
CELL(abcABC):  300.000000 300.000000 300.000000 90.000000 90.000000 90.000000 cell{atomic_unit}  Traj: positions{atomic_unit}   Bead:       2
H -0.007313268518235222 4.259873205003335e-17 2.310018239656869e-17
1
CELL(abcABC):  300.000000 300.000000 300.000000 90.000000 90.000000 90.000000 cell{atomic_unit}  Traj: positions{atomic_unit}   Bead:       3
H -0.007311271412661971 4.1121649936306466e-17 2.0938364534591504e-17
1
CELL(abcABC):  300.000000 300.000000 300.000000 90.000000 90.000000 90.000000 cell{atomic_unit}  Traj: positions{atomic_unit}   Bead:       4
H -0.007308389160763918 3.554745681392351e-17 1.65049418494414e-17
1
CELL(abcABC):  300.000000 300.000000 300.000000 90.000000 90.000000 90.000000 cell{atomic_unit}  Traj: positions{atomic_unit}   Bead:       5
H -0.0073044350903394735 2.908636742009264e-17 1.725882155106445e-17
1
CELL(abcABC):  300.000000 300.000000 300.000000 90.000000 90.000000 90.000000 cell{atomic_unit}  Traj: positions{atomic_unit}   Bead:       6
H -0.007299177657503545 3.230164053434889e-17 8.212377307094972e-18
1
CELL(abcABC):  300.000000 300.000000 300.000000 90.000000 90.000000 90.000000 cell{atomic_unit}  Traj: positions{atomic_unit}   Bead:       7
H -0.007292341670833128 2.7109554408782027e-17 4.4795902287518275e-18
1
CELL(abcABC):  300.000000 300.000000 300.000000 90.000000 90.000000 90.000000 cell{atomic_unit}  Traj: positions{atomic_unit}   Bead:       8
H -0.00728360978579095 2.936542753657018e-17 2.000932426488472e-18
1
CELL(abcABC):  300.000000 300.000000 300.000000 90.000000 90.000000 90.000000 cell{atomic_unit}  Traj: positions{atomic_unit}   Bead:       9
H -0.00727262428189764 3.2478630405788386e-17 -4.3849739348884125e-20
1
CELL(abcABC):  300.000000 300.000000 300.000000 90.000000 90.000000 90.000000 cell{atomic_unit}  Traj: positions{atomic_unit}   Bead:       10
H -0.007258989136000321 3.535812066349267e-17 8.823480679093662e-18
1
CELL(abcABC):  300.000000 300.000000 300.000000 90.000000 90.000000 90.000000 cell{atomic_unit}  Traj: positions{atomic_unit}   Bead:       11
H -0.007242272405305164 2.6322206847569102e-17 4.9410120035864564e-18
1
CELL(abcABC):  300.000000 300.000000 300.000000 90.000000 90.000000 90.000000 cell{atomic_unit}  Traj: positions{atomic_unit}   Bead:       12
H -0.007222008933533859 2.1215589086078607e-17 2.6054140421842877e-18
1
CELL(abcABC):  300.000000 300.000000 300.000000 90.000000 90.000000 90.000000 cell{atomic_unit}  Traj: positions{atomic_unit}   Bead:       13
H -0.00719770339256536 1.6856463829068308e-17 5.634958208530018e-18
1
CELL(abcABC):  300.000000 300.000000 300.000000 90.000000 90.000000 90.000000 cell{atomic_unit}  Traj: positions{atomic_unit}   Bead:       14
H -0.007168833670179507 1.3875537756880933e-17 1.843149086706917e-18
1
CELL(abcABC):  300.000000 300.000000 300.000000 90.000000 90.000000 90.000000 cell{atomic_unit}  Traj: positions{atomic_unit}   Bead:       15
H -0.007134854611983047 1.0888562131346924e-17 2.3725526249526092e-18
1
CELL(abcABC):  300.000000 300.000000 300.000000 90.000000 90.000000 90.000000 cell{atomic_unit}  Traj: positions{atomic_unit}   Bead:       16
H -0.007095202122239425 9.18941953839909e-18 2.9152619064328643e-18
1
CELL(abcABC):  300.000000 300.000000 300.000000 90.000000 90.000000 90.000000 cell{atomic_unit}  Traj: positions{atomic_unit}   Bead:       17
H -0.007049297624125072 6.140855144802973e-18 9.616077279726167e-19
1
CELL(abcABC):  300.000000 300.000000 300.000000 90.000000 90.000000 90.000000 cell{atomic_unit}  Traj: positions{atomic_unit}   Bead:       18
H -0.006996552874899147 5.676028882723361e-18 -3.7001615463028816e-19
1
CELL(abcABC):  300.000000 300.000000 300.000000 90.000000 90.000000 90.000000 cell{atomic_unit}  Traj: positions{atomic_unit}   Bead:       19
H -0.006936375125624877 1.0067354167028148e-17 -2.982591844327472e-18
1
CELL(abcABC):  300.000000 300.000000 300.000000 90.000000 90.000000 90.000000 cell{atomic_unit}  Traj: positions{atomic_unit}   Bead:       20
H -0.006868172608466736 1.2028590409416953e-17 -6.646107893052663e-18
1
CELL(abcABC):  300.000000 300.000000 300.000000 90.000000 90.000000 90.000000 cell{atomic_unit}  Traj: positions{atomic_unit}   Bead:       21
H -0.006791360327283728 1.1518707478058146e-17 -1.0799153451417607e-17
1
CELL(abcABC):  300.000000 300.000000 300.000000 90.000000 90.000000 90.000000 cell{atomic_unit}  Traj: positions{atomic_unit}   Bead:       22
H -0.006705366119348796 1.2203269240805364e-17 -1.214856624006208e-17
1
CELL(abcABC):  300.000000 300.000000 300.000000 90.000000 90.000000 90.000000 cell{atomic_unit}  Traj: positions{atomic_unit}   Bead:       23
H -0.00660963694768154 1.0902054615977783e-17 -1.0392594659747689e-17
1
CELL(abcABC):  300.000000 300.000000 300.000000 90.000000 90.000000 90.000000 cell{atomic_unit}  Traj: positions{atomic_unit}   Bead:       24
H -0.00650364537485028 8.220014355108405e-18 -8.33332743157713e-18
1
CELL(abcABC):  300.000000 300.000000 300.000000 90.000000 90.000000 90.000000 cell{atomic_unit}  Traj: positions{atomic_unit}   Bead:       25
H -0.0063868961603746385 6.245758751983361e-18 -1.8463132568213325e-17
1
CELL(abcABC):  300.000000 300.000000 300.000000 90.000000 90.000000 90.000000 cell{atomic_unit}  Traj: positions{atomic_unit}   Bead:       26
H -0.006258932915263927 -9.460373969203897e-19 -1.740050441318585e-17
1
CELL(abcABC):  300.000000 300.000000 300.000000 90.000000 90.000000 90.000000 cell{atomic_unit}  Traj: positions{atomic_unit}   Bead:       27
H -0.006119344739004996 -8.232050618408404e-18 -2.166407890973761e-17
1
CELL(abcABC):  300.000000 300.000000 300.000000 90.000000 90.000000 90.000000 cell{atomic_unit}  Traj: positions{atomic_unit}   Bead:       28
H -0.005967772756732826 -1.2348431495950164e-17 -2.6279564580193766e-17
1
CELL(abcABC):  300.000000 300.000000 300.000000 90.000000 90.000000 90.000000 cell{atomic_unit}  Traj: positions{atomic_unit}   Bead:       29
H -0.005803916467658462 -1.5095808482416743e-17 -2.810346829518465e-17
1
CELL(abcABC):  300.000000 300.000000 300.000000 90.000000 90.000000 90.000000 cell{atomic_unit}  Traj: positions{atomic_unit}   Bead:       30
H -0.005627539810378066 -1.0139830159190362e-17 -1.9330650056855946e-17
1
CELL(abcABC):  300.000000 300.000000 300.000000 90.000000 90.000000 90.000000 cell{atomic_unit}  Traj: positions{atomic_unit}   Bead:       31
H -0.005438476846726813 -1.6468630978177098e-18 -1.4103857261330832e-17
1
CELL(abcABC):  300.000000 300.000000 300.000000 90.000000 90.000000 90.000000 cell{atomic_unit}  Traj: positions{atomic_unit}   Bead:       32
H -0.005236636963640585 -8.153133595369063e-18 -8.600241535514107e-18
1
CELL(abcABC):  300.000000 300.000000 300.000000 90.000000 90.000000 90.000000 cell{atomic_unit}  Traj: positions{atomic_unit}   Bead:       33
H -0.005022009492290893 -3.409183463026215e-19 -7.697493940305246e-18
1
CELL(abcABC):  300.000000 300.000000 300.000000 90.000000 90.000000 90.000000 cell{atomic_unit}  Traj: positions{atomic_unit}   Bead:       34
H -0.004794667645770862 -2.2192577461531967e-19 -5.644560110357777e-18
1
CELL(abcABC):  300.000000 300.000000 300.000000 90.000000 90.000000 90.000000 cell{atomic_unit}  Traj: positions{atomic_unit}   Bead:       35
H -0.004554771680990665 -1.3403935948862525e-18 -5.0692337084696034e-18
1
CELL(abcABC):  300.000000 300.000000 300.000000 90.000000 90.000000 90.000000 cell{atomic_unit}  Traj: positions{atomic_unit}   Bead:       36
H -0.004302571197288118 -2.3363602576270754e-18 -3.563141829721628e-18
1
CELL(abcABC):  300.000000 300.000000 300.000000 90.000000 90.000000 90.000000 cell{atomic_unit}  Traj: positions{atomic_unit}   Bead:       37
H -0.004038406493603043 -7.761789445991544e-20 -2.7074910637789707e-18
1
CELL(abcABC):  300.000000 300.000000 300.000000 90.000000 90.000000 90.000000 cell{atomic_unit}  Traj: positions{atomic_unit}   Bead:       38
H -0.0037627089178564814 -5.297128245543594e-19 2.9491245629979424e-20
1
CELL(abcABC):  300.000000 300.000000 300.000000 90.000000 90.000000 90.000000 cell{atomic_unit}  Traj: positions{atomic_unit}   Bead:       39
H -0.003476000156286842 1.3282315483852133e-18 -2.075434553930441e-18
1
CELL(abcABC):  300.000000 300.000000 300.000000 90.000000 90.000000 90.000000 cell{atomic_unit}  Traj: positions{atomic_unit}   Bead:       40
H -0.0031788904267085975 -2.0799034813601946e-19 -2.9242014419984125e-19
1
CELL(abcABC):  300.000000 300.000000 300.000000 90.000000 90.000000 90.000000 cell{atomic_unit}  Traj: positions{atomic_unit}   Bead:       41
H -0.0028720755576760564 6.410868437532254e-19 7.372248659045604e-19
1
CELL(abcABC):  300.000000 300.000000 300.000000 90.000000 90.000000 90.000000 cell{atomic_unit}  Traj: positions{atomic_unit}   Bead:       42
H -0.002556332954976126 5.442522407238062e-19 8.201601196624471e-20
1
CELL(abcABC):  300.000000 300.000000 300.000000 90.000000 90.000000 90.000000 cell{atomic_unit}  Traj: positions{atomic_unit}   Bead:       43
H -0.0022325164772908465 -1.2460641903807214e-18 4.1268045208129063e-20
1
CELL(abcABC):  300.000000 300.000000 300.000000 90.000000 90.000000 90.000000 cell{atomic_unit}  Traj: positions{atomic_unit}   Bead:       44
H -0.0019015502637550505 1.6220207830702935e-19 -1.1600646533380284e-19
1
CELL(abcABC):  300.000000 300.000000 300.000000 90.000000 90.000000 90.000000 cell{atomic_unit}  Traj: positions{atomic_unit}   Bead:       45
H -0.0015644215769367005 7.464007370166253e-19 -8.839297354304837e-19
1
CELL(abcABC):  300.000000 300.000000 300.000000 90.000000 90.000000 90.000000 cell{atomic_unit}  Traj: positions{atomic_unit}   Bead:       46
H -0.0012221727449127303 1.267215685001831e-18 -1.5830334097810908e-18
1
CELL(abcABC):  300.000000 300.000000 300.000000 90.000000 90.000000 90.000000 cell{atomic_unit}  Traj: positions{atomic_unit}   Bead:       47
H -0.0008758923050237385 2.252057860773086e-18 1.1742610484672473e-18
1
CELL(abcABC):  300.000000 300.000000 300.000000 90.000000 90.000000 90.000000 cell{atomic_unit}  Traj: positions{atomic_unit}   Bead:       48
H -0.000526705469006778 1.2606325245858993e-18 1.4435183485255707e-18
1
CELL(abcABC):  300.000000 300.000000 300.000000 90.000000 90.000000 90.000000 cell{atomic_unit}  Traj: positions{atomic_unit}   Bead:       49
H -0.000175764044006554 -1.792915056958598e-18 6.749142750750856e-19
1
CELL(abcABC):  300.000000 300.000000 300.000000 90.000000 90.000000 90.000000 cell{atomic_unit}  Traj: positions{atomic_unit}   Bead:       50
H 0.0001757640440065736 -1.9320652781734576e-18 -9.091207697888875e-19
1
CELL(abcABC):  300.000000 300.000000 300.000000 90.000000 90.000000 90.000000 cell{atomic_unit}  Traj: positions{atomic_unit}   Bead:       51
H 0.0005267054690067975 -2.0949861697469277e-18 -1.1849969419503005e-18
1
CELL(abcABC):  300.000000 300.000000 300.000000 90.000000 90.000000 90.000000 cell{atomic_unit}  Traj: positions{atomic_unit}   Bead:       52
H 0.0008758923050237581 -9.24091232186044e-19 -2.099392495430456e-18
1
CELL(abcABC):  300.000000 300.000000 300.000000 90.000000 90.000000 90.000000 cell{atomic_unit}  Traj: positions{atomic_unit}   Bead:       53
H 0.0012221727449127494 -1.6098103427150336e-18 -1.3245722458344931e-18
1
CELL(abcABC):  300.000000 300.000000 300.000000 90.000000 90.000000 90.000000 cell{atomic_unit}  Traj: positions{atomic_unit}   Bead:       54
H 0.0015644215769367198 -5.58788384683941e-19 -1.118450182402881e-18
1
CELL(abcABC):  300.000000 300.000000 300.000000 90.000000 90.000000 90.000000 cell{atomic_unit}  Traj: positions{atomic_unit}   Bead:       55
H 0.0019015502637550695 6.022412495997101e-19 -2.2688427029457086e-19
1
CELL(abcABC):  300.000000 300.000000 300.000000 90.000000 90.000000 90.000000 cell{atomic_unit}  Traj: positions{atomic_unit}   Bead:       56
H 0.0022325164772908656 7.611806269985193e-21 -8.202948077196729e-19
1
CELL(abcABC):  300.000000 300.000000 300.000000 90.000000 90.000000 90.000000 cell{atomic_unit}  Traj: positions{atomic_unit}   Bead:       57
H 0.0025563329549761447 4.956702238750856e-19 -1.556012066208287e-18
1
CELL(abcABC):  300.000000 300.000000 300.000000 90.000000 90.000000 90.000000 cell{atomic_unit}  Traj: positions{atomic_unit}   Bead:       58
H 0.002872075557676075 1.252809932572459e-18 -5.756875024682623e-20
1
CELL(abcABC):  300.000000 300.000000 300.000000 90.000000 90.000000 90.000000 cell{atomic_unit}  Traj: positions{atomic_unit}   Bead:       59
H 0.003178890426708616 1.341088798073208e-18 2.167311151694059e-19
1
CELL(abcABC):  300.000000 300.000000 300.000000 90.000000 90.000000 90.000000 cell{atomic_unit}  Traj: positions{atomic_unit}   Bead:       60
H 0.0034760001562868597 5.151225314207639e-19 1.4770528272752022e-18
1
CELL(abcABC):  300.000000 300.000000 300.000000 90.000000 90.000000 90.000000 cell{atomic_unit}  Traj: positions{atomic_unit}   Bead:       61
H 0.0037627089178564996 1.6904716029082648e-18 1.7623721399726854e-18
1
CELL(abcABC):  300.000000 300.000000 300.000000 90.000000 90.000000 90.000000 cell{atomic_unit}  Traj: positions{atomic_unit}   Bead:       62
H 0.00403840649360306 3.721158528129703e-19 2.7872107363478933e-18
1
CELL(abcABC):  300.000000 300.000000 300.000000 90.000000 90.000000 90.000000 cell{atomic_unit}  Traj: positions{atomic_unit}   Bead:       63
H 0.0043025711972881344 1.074098650453962e-18 3.923729483081093e-19
1
CELL(abcABC):  300.000000 300.000000 300.000000 90.000000 90.000000 90.000000 cell{atomic_unit}  Traj: positions{atomic_unit}   Bead:       64
H 0.004554771680990681 2.0623069682714785e-19 1.364020334766826e-18
1
CELL(abcABC):  300.000000 300.000000 300.000000 90.000000 90.000000 90.000000 cell{atomic_unit}  Traj: positions{atomic_unit}   Bead:       65
H 0.00479466764577088 2.337680461718419e-19 2.0890416696925657e-19
1
CELL(abcABC):  300.000000 300.000000 300.000000 90.000000 90.000000 90.000000 cell{atomic_unit}  Traj: positions{atomic_unit}   Bead:       66
H 0.00502200949229091 -2.660168366214518e-18 3.648560779373164e-20
1
CELL(abcABC):  300.000000 300.000000 300.000000 90.000000 90.000000 90.000000 cell{atomic_unit}  Traj: positions{atomic_unit}   Bead:       67
H 0.005236636963640602 -1.4612168322417447e-18 -1.1144093236178385e-18
1
CELL(abcABC):  300.000000 300.000000 300.000000 90.000000 90.000000 90.000000 cell{atomic_unit}  Traj: positions{atomic_unit}   Bead:       68
H 0.0054384768467268295 -1.685578462003205e-18 1.1417909736272105e-19
1
CELL(abcABC):  300.000000 300.000000 300.000000 90.000000 90.000000 90.000000 cell{atomic_unit}  Traj: positions{atomic_unit}   Bead:       69
H 0.0056275398103780815 -2.930764512361622e-19 -2.2846222653022546e-18
1
CELL(abcABC):  300.000000 300.000000 300.000000 90.000000 90.000000 90.000000 cell{atomic_unit}  Traj: positions{atomic_unit}   Bead:       70
H 0.005803916467658476 -7.670999889122097e-19 -1.2369924863010618e-18
1
CELL(abcABC):  300.000000 300.000000 300.000000 90.000000 90.000000 90.000000 cell{atomic_unit}  Traj: positions{atomic_unit}   Bead:       71
H 0.005967772756732841 9.550217240454057e-19 -1.3886076202955207e-18
1
CELL(abcABC):  300.000000 300.000000 300.000000 90.000000 90.000000 90.000000 cell{atomic_unit}  Traj: positions{atomic_unit}   Bead:       72
H 0.00611934473900501 1.5422122911507747e-19 8.454099820534752e-19
1
CELL(abcABC):  300.000000 300.000000 300.000000 90.000000 90.000000 90.000000 cell{atomic_unit}  Traj: positions{atomic_unit}   Bead:       73
H 0.006258932915263943 9.338712670571228e-19 4.1373680055832145e-19
1
CELL(abcABC):  300.000000 300.000000 300.000000 90.000000 90.000000 90.000000 cell{atomic_unit}  Traj: positions{atomic_unit}   Bead:       74
H 0.0063868961603746515 1.0117452892132885e-22 2.163193746247513e-19
1
CELL(abcABC):  300.000000 300.000000 300.000000 90.000000 90.000000 90.000000 cell{atomic_unit}  Traj: positions{atomic_unit}   Bead:       75
H 0.006503645374850291 -2.236057451476495e-19 -1.395196865463085e-19
1
CELL(abcABC):  300.000000 300.000000 300.000000 90.000000 90.000000 90.000000 cell{atomic_unit}  Traj: positions{atomic_unit}   Bead:       76
H 0.006609636947681552 -4.113890924655665e-19 -8.012210624138853e-19
1
CELL(abcABC):  300.000000 300.000000 300.000000 90.000000 90.000000 90.000000 cell{atomic_unit}  Traj: positions{atomic_unit}   Bead:       77
H 0.006705366119348808 3.931460920619844e-19 -4.229556194211084e-19
1
CELL(abcABC):  300.000000 300.000000 300.000000 90.000000 90.000000 90.000000 cell{atomic_unit}  Traj: positions{atomic_unit}   Bead:       78
H 0.00679136032728374 6.641733908075352e-19 1.2309378732900062e-18
1
CELL(abcABC):  300.000000 300.000000 300.000000 90.000000 90.000000 90.000000 cell{atomic_unit}  Traj: positions{atomic_unit}   Bead:       79
H 0.006868172608466748 9.448291008141363e-20 7.476318255156258e-19
1
CELL(abcABC):  300.000000 300.000000 300.000000 90.000000 90.000000 90.000000 cell{atomic_unit}  Traj: positions{atomic_unit}   Bead:       80
H 0.006936375125624887 -1.9450765038210536e-19 1.0417442749413636e-18
1
CELL(abcABC):  300.000000 300.000000 300.000000 90.000000 90.000000 90.000000 cell{atomic_unit}  Traj: positions{atomic_unit}   Bead:       81
H 0.0069965528748991545 6.222852420697466e-19 1.1663436341679028e-18
1
CELL(abcABC):  300.000000 300.000000 300.000000 90.000000 90.000000 90.000000 cell{atomic_unit}  Traj: positions{atomic_unit}   Bead:       82
H 0.007049297624125081 9.259702123584124e-19 -1.0220178947268127e-18
1
CELL(abcABC):  300.000000 300.000000 300.000000 90.000000 90.000000 90.000000 cell{atomic_unit}  Traj: positions{atomic_unit}   Bead:       83
H 0.007095202122239434 -1.2853223445517868e-18 -3.3351262352576423e-19
1
CELL(abcABC):  300.000000 300.000000 300.000000 90.000000 90.000000 90.000000 cell{atomic_unit}  Traj: positions{atomic_unit}   Bead:       84
H 0.007134854611983054 -3.7203209679854214e-19 -1.1779128389114476e-18
1
CELL(abcABC):  300.000000 300.000000 300.000000 90.000000 90.000000 90.000000 cell{atomic_unit}  Traj: positions{atomic_unit}   Bead:       85
H 0.0071688336701795155 -2.210780187034446e-19 -2.3220570543972083e-19
1
CELL(abcABC):  300.000000 300.000000 300.000000 90.000000 90.000000 90.000000 cell{atomic_unit}  Traj: positions{atomic_unit}   Bead:       86
H 0.007197703392565367 7.400324804034736e-20 4.194665545071503e-19
1
CELL(abcABC):  300.000000 300.000000 300.000000 90.000000 90.000000 90.000000 cell{atomic_unit}  Traj: positions{atomic_unit}   Bead:       87
H 0.007222008933533865 -1.2671628528447574e-20 1.938517197854989e-19
1
CELL(abcABC):  300.000000 300.000000 300.000000 90.000000 90.000000 90.000000 cell{atomic_unit}  Traj: positions{atomic_unit}   Bead:       88
H 0.00724227240530517 9.438163451250516e-19 -9.739442096453682e-19
1
CELL(abcABC):  300.000000 300.000000 300.000000 90.000000 90.000000 90.000000 cell{atomic_unit}  Traj: positions{atomic_unit}   Bead:       89
H 0.007258989136000327 -3.670531764042266e-19 6.836691961202103e-19
1
CELL(abcABC):  300.000000 300.000000 300.000000 90.000000 90.000000 90.000000 cell{atomic_unit}  Traj: positions{atomic_unit}   Bead:       90
H 0.007272624281897646 1.4020395928496674e-20 8.434523005994452e-19
1
CELL(abcABC):  300.000000 300.000000 300.000000 90.000000 90.000000 90.000000 cell{atomic_unit}  Traj: positions{atomic_unit}   Bead:       91
H 0.007283609785790953 -5.511007016656125e-19 1.0052419489426523e-18
1
CELL(abcABC):  300.000000 300.000000 300.000000 90.000000 90.000000 90.000000 cell{atomic_unit}  Traj: positions{atomic_unit}   Bead:       92
H 0.007292341670833132 3.1691837271102683e-19 -9.443698885661117e-19
1
CELL(abcABC):  300.000000 300.000000 300.000000 90.000000 90.000000 90.000000 cell{atomic_unit}  Traj: positions{atomic_unit}   Bead:       93
H 0.007299177657503549 -4.849230120555741e-19 -6.4770385073829095e-19
1
CELL(abcABC):  300.000000 300.000000 300.000000 90.000000 90.000000 90.000000 cell{atomic_unit}  Traj: positions{atomic_unit}   Bead:       94
H 0.007304435090339477 -1.358098862542404e-19 -4.445727565052127e-19
1
CELL(abcABC):  300.000000 300.000000 300.000000 90.000000 90.000000 90.000000 cell{atomic_unit}  Traj: positions{atomic_unit}   Bead:       95
H 0.007308389160763921 5.94323259197595e-19 -3.673739047676313e-20
1
CELL(abcABC):  300.000000 300.000000 300.000000 90.000000 90.000000 90.000000 cell{atomic_unit}  Traj: positions{atomic_unit}   Bead:       96
H 0.007311271412661974 4.715632929745667e-19 -3.549870247921637e-20
1
CELL(abcABC):  300.000000 300.000000 300.000000 90.000000 90.000000 90.000000 cell{atomic_unit}  Traj: positions{atomic_unit}   Bead:       97
H 0.007313268518235225 -8.110650724708126e-19 6.312335224337868e-19
1
CELL(abcABC):  300.000000 300.000000 300.000000 90.000000 90.000000 90.000000 cell{atomic_unit}  Traj: positions{atomic_unit}   Bead:       98
H 0.007314521313024158 6.527719734472512e-20 2.600948657818762e-19
1
CELL(abcABC):  300.000000 300.000000 300.000000 90.000000 90.000000 90.000000 cell{atomic_unit}  Traj: positions{atomic_unit}   Bead:       99
H 0.007315124080754508 2.103363761076697e-19 -2.6189906875389e-19
