1
CELL(abcABC):  300.000000 300.000000 300.000000 90.000000 90.000000 90.000000 cell{atomic_unit}  Traj: positions{atomic_unit}   Bead:       0
H -1.401023926883691 1.1774869145549194e-22 -3.565911079684147e-21
1
CELL(abcABC):  300.000000 300.000000 300.000000 90.000000 90.000000 90.000000 cell{atomic_unit}  Traj: positions{atomic_unit}   Bead:       1
H -1.2874731966951485 1.9145681252833643e-22 1.1106176548700004e-21
1
CELL(abcABC):  300.000000 300.000000 300.000000 90.000000 90.000000 90.000000 cell{atomic_unit}  Traj: positions{atomic_unit}   Bead:       2
H -1.0538266216881524 -2.7209804171093096e-21 3.1278796203626494e-21
1
CELL(abcABC):  300.000000 300.000000 300.000000 90.000000 90.000000 90.000000 cell{atomic_unit}  Traj: positions{atomic_unit}   Bead:       3
H -0.6987805528336609 3.1302634112276646e-22 1.448148545508429e-22
1
CELL(abcABC):  300.000000 300.000000 300.000000 90.000000 90.000000 90.000000 cell{atomic_unit}  Traj: positions{atomic_unit}   Bead:       4
H -0.24581361426459325 1.456433896324013e-23 1.781610810459985e-23
1
CELL(abcABC):  300.000000 300.000000 300.000000 90.000000 90.000000 90.000000 cell{atomic_unit}  Traj: positions{atomic_unit}   Bead:       5
H 0.24581361426459264 -3.0911306219830362e-24 -1.1362886276955994e-23
1
CELL(abcABC):  300.000000 300.000000 300.000000 90.000000 90.000000 90.000000 cell{atomic_unit}  Traj: positions{atomic_unit}   Bead:       6
H 0.6987805528336599 -1.5932220291234926e-23 -9.770641059635834e-24
1
CELL(abcABC):  300.000000 300.000000 300.000000 90.000000 90.000000 90.000000 cell{atomic_unit}  Traj: positions{atomic_unit}   Bead:       7
H 1.0538266216881516 -2.163876796669423e-23 1.1181322286631656e-23
1
CELL(abcABC):  300.000000 300.000000 300.000000 90.000000 90.000000 90.000000 cell{atomic_unit}  Traj: positions{atomic_unit}   Bead:       8
H 1.2874731966951483 -7.361390276386795e-25 8.889374946579326e-24
1
CELL(abcABC):  300.000000 300.000000 300.000000 90.000000 90.000000 90.000000 cell{atomic_unit}  Traj: positions{atomic_unit}   Bead:       9
H 1.401023926883691 -8.618355926999613e-24 -2.642701341809119e-24
