64
# CELL(GENH): 10.01263204 0.0 0.0 5.006316020000001 8.671193705386006 0.0 5.006316020000001 2.890397901795336 8.175279826747401 cell{angstrom} positions{angstrom}
Ni       0.00000000       0.00000000       0.00000000
Ni       1.25157901       0.72259948       2.04381996
Ni       2.50315801       1.44519895       4.08763991
Ni       3.75473702       2.16779843       6.13145987
Ni       1.25157901       2.16779843       0.00000000
Ni       2.50315801       2.89039790       2.04381996
Ni       3.75473702       3.61299738       4.08763991
Ni       5.00631602       4.33559685       6.13145987
Ni       2.50315801       4.33559685       0.00000000
Ni       3.75473702       5.05819633       2.04381996
Ni       5.00631602       5.78079580       4.08763991
Ni       6.25789503       6.50339528       6.13145987
Ni       3.75473702       6.50339528       0.00000000
Ni       5.00631602       7.22599475       2.04381996
Ni       6.25789503       7.94859423       4.08763991
Ni       7.50947403       8.67119371       6.13145987
Ni       2.50315801       0.00000000       0.00000000
Ni       3.75473701       0.72259948       2.04381996
Ni       5.00631602       1.44519895       4.08763991
Ni       6.25789503       2.16779843       6.13145987
Ni       3.75473701       2.16779843       0.00000000
Ni       5.00631602       2.89039790       2.04381996
Ni       6.25789502       3.61299738       4.08763991
Ni       7.50947403       4.33559685       6.13145987
Ni       5.00631602       4.33559685       0.00000000
Ni       6.25789502       5.05819633       2.04381996
Ni       7.50947403       5.78079580       4.08763991
Ni       8.76105303       6.50339528       6.13145987
Ni       6.25789503       6.50339528       0.00000000
Ni       7.50947403       7.22599475       2.04381996
Ni       8.76105304       7.94859423       4.08763991
Ni      10.01263204       8.67119371       6.13145987
Ni       5.00631602       0.00000000       0.00000000
Ni       6.25789502       0.72259948       2.04381996
Ni       7.50947403       1.44519895       4.08763991
Ni       8.76105303       2.16779843       6.13145987
Ni       6.25789502       2.16779843       0.00000000
Ni       7.50947403       2.89039790       2.04381996
Ni       8.76105303       3.61299738       4.08763991
Ni      10.01263204       4.33559685       6.13145987
Ni       7.50947403       4.33559685       0.00000000
Ni       8.76105303       5.05819633       2.04381996
Ni      10.01263204       5.78079580       4.08763991
Ni      11.26421104       6.50339528       6.13145987
Ni       8.76105303       6.50339528       0.00000000
Ni      10.01263204       7.22599475       2.04381996
Ni      11.26421104       7.94859423       4.08763991
Ni      12.51579005       8.67119371       6.13145987
Ni       7.50947403       0.00000000       0.00000000
Ni       8.76105303       0.72259948       2.04381996
Ni      10.01263204       1.44519895       4.08763991
Ni      11.26421104       2.16779843       6.13145987
Ni       8.76105303       2.16779843       0.00000000
Ni      10.01263204       2.89039790       2.04381996
Ni      11.26421104       3.61299738       4.08763991
Ni      12.51579005       4.33559685       6.13145987
Ni      10.01263204       4.33559685       0.00000000
Ni      11.26421104       5.05819633       2.04381996
Ni      12.51579005       5.78079580       4.08763991
Ni      13.76736905       6.50339528       6.13145987
Ni      11.26421104       6.50339528       0.00000000
Ni      12.51579005       7.22599475       2.04381996
Ni      13.76736905       7.94859423       4.08763991
Ni      15.01894806       8.67119371       6.13145987
