6
CELL(abcABC):  200.000000 200.000000 200.000000 90.000000 90.000000 90.000000 cell{atomic_unit}  Traj: positions{angstrom}   Bead:       0
H 1.282251831369545 1.5375086343166422 1.301485347562085
C 0.5807475911134782 0.7142338877881125 0.5986180697822012
H -0.0005273032896146968 0.10785718036223164 1.2938994870864944
H 1.277299890348539 0.10522211356094094 0.02163539732498149
H -0.06358427512507174 1.308732497898416 -0.04976245648600454
H 1.8264740391525043 2.176200959177254 1.8467670974769224
6
CELL(abcABC):  200.000000 200.000000 200.000000 90.000000 90.000000 90.000000 cell{atomic_unit}  Traj: positions{angstrom}   Bead:       1
H 1.292251831369545 1.5475086343166422 1.305485347562085
C 0.5807475911134782 0.7142338877881125 0.5986180697822012
H -0.0005273032896146968 0.10785718036223164 1.2938994870864944
H 1.277299890348539 0.10522211356094094 0.02163539732498149
H -0.06358427512507174 1.308732497898416 -0.04976245648600454
H 1.8264740391525043 2.176200959177254 1.8467670974769224
6
CELL(abcABC):  200.000000 200.000000 200.000000 90.000000 90.000000 90.000000 cell{atomic_unit}  Traj: positions{angstrom}   Bead:       2
H 1.293584669447494 1.5508086896231623 1.3128402180131014
C 0.5798554286757716 0.7131868588052356 0.5977241728557626
H -0.0004216262785483105 0.10802779537039633 1.2947907653778499
H 1.2781910432986971 0.10539110145147317 0.02174460683702752
H -0.06351736201398588 1.309641289487039 -0.049697131745496725
H 1.8247085487890777 2.174129004331523 1.8449981735300522
6
CELL(abcABC):  200.000000 200.000000 200.000000 90.000000 90.000000 90.000000 cell{atomic_unit}  Traj: positions{angstrom}   Bead:       3
H 1.3005738550135924 1.5590110969759 1.3198429913618477
C 0.5792907381768148 0.7125241462660862 0.5971583846620452
H -0.00035807083145765776 0.10813146715169723 1.2953446926537244
H 1.278744898144614 0.10549375859961468 0.021810363168802947
H -0.06347800283413281 1.3102057357453525 -0.04965876904571591
H 1.8237914986958286 2.1730527665106627 1.8440793389714059
6
CELL(abcABC):  200.000000 200.000000 200.000000 90.000000 90.000000 90.000000 cell{atomic_unit}  Traj: positions{angstrom}   Bead:       4
H 1.3079395354526613 1.567655353176193 1.32722299137637
C 0.57868267371824 0.7118105307419991 0.5965491382875354
H -0.0002920169570226844 0.10824003991213409 1.29593431308911
H 1.2793344454911333 0.10560124871133646 0.021878763788298068
H -0.06343778308186808 1.310806277951002 -0.04961961694952302
H 1.8229757503871495 2.172095414666904 1.8432620026335045
6
CELL(abcABC):  200.000000 200.000000 200.000000 90.000000 90.000000 90.000000 cell{atomic_unit}  Traj: positions{angstrom}   Bead:       5
H 1.3155399365720317 1.5765750739931437 1.3348381681144024
C 0.5780398646161775 0.7110561394721974 0.5959050798224311
H -0.00022453190812536094 0.10835182850499676 1.2965512646817063
H 1.2799513246502636 0.10571190172741693 0.021948708464928926
H -0.06339741007630462 1.3114343767138843 -0.049580368193076846
H 1.8223103854732876 2.171314550369485 1.8425953416977774
6
CELL(abcABC):  200.000000 200.000000 200.000000 90.000000 90.000000 90.000000 cell{atomic_unit}  Traj: positions{angstrom}   Bead:       6
H 1.323279920065288 1.5856586064093379 1.342593198199767
C 0.5773674236273909 0.7102669727137372 0.59523133196242
H -0.00015616444955475923 0.1084659507421872 1.2971909830462152
H 1.2805909718875355 0.10582484376620921 0.022019630351044477
H -0.06335723444744627 1.3120853766470584 -0.04954136530307742
H 1.8218350812155233 2.1707567383650224 1.842119110693969
6
CELL(abcABC):  200.000000 200.000000 200.000000 90.000000 90.000000 90.000000 cell{atomic_unit}  Traj: positions{angstrom}   Bead:       7
H 1.3310861783893655 1.5948199176813183 1.350414631468052
C 0.5766688946657781 0.7094471895530229 0.594531445510835
H -8.720760770174948e-05 0.10858191091236263 1.2978506154303875
H 1.281250534761339 0.10593958440213311 0.02209122499934893
H -0.06331742291541595 1.3127563767411055 -0.049502769723939744
H 1.8215842275441667 2.1704623382543304 1.8418677665258902
6
CELL(abcABC):  200.000000 200.000000 200.000000 90.000000 90.000000 90.000000 cell{atomic_unit}  Traj: positions{angstrom}   Bead:       8
H 1.3388978525126924 1.6039875844665124 1.3582414904761824
C 0.5759470395972663 0.7086000312763413 0.5938081877033917
H -1.7810873428871208e-05 0.10869942278320485 1.2985281446395267
H 1.281927996177411 0.10605584127786041 0.022163334714163055
H -0.06327803280696828 1.3134453356290847 -0.049464634806537254
H 1.8215879963564543 2.1704667594141216 1.84187153985304
6
CELL(abcABC):  200.000000 200.000000 200.000000 90.000000 90.000000 90.000000 cell{atomic_unit}  Traj: positions{angstrom}   Bead:       9
H 1.3466615463254985 1.6130989417995523 1.3660202752176136
C 0.5752043243061249 0.7077283918099577 0.5930640292186078
H 5.1951635615481687e-05 0.10881830152032029 1.299221846979866
H 1.2826216324212567 0.10617343298085684 0.02223587825338913
H -0.06323905682472697 1.3141505182104953 -0.04942694963571256
H 1.8218721900546726 2.1708002832354 1.8421562833385399
6
CELL(abcABC):  200.000000 200.000000 200.000000 90.000000 90.000000 90.000000 cell{atomic_unit}  Traj: positions{angstrom}   Bead:       10
H 1.3543292525733084 1.6220976490105103 1.3737028850323212
C 0.5744431971057058 0.7068351444589689 0.59230142312939
H 0.00012204071259489862 0.10893839979586516 1.2999299753631886
H 1.2833296963105212 0.1062922157301535 0.022308809106067487
H -0.0632004498825389 1.3148701720287554 -0.049389665302334365
H 1.8224573822901033 2.1714870547126512 1.8427426107115024
6
CELL(abcABC):  200.000000 200.000000 200.000000 90.000000 90.000000 90.000000 cell{atomic_unit}  Traj: positions{angstrom}   Bead:       11
H 1.3618567122426717 1.6309317643310892 1.3812449748213425
C 0.5736663657371406 0.705923466989417 0.5915230824413946
H 0.0001924158710856838 0.10905954997910965 1.3006504645561616
H 1.2840501224849257 0.10641202609694353 0.02238207813413003
H -0.0631621525319062 1.3156022265148657 -0.0493527178152027
H 1.8233576121153643 2.1725435499140273 1.843644588375626
6
CELL(abcABC):  200.000000 200.000000 200.000000 90.000000 90.000000 90.000000 cell{atomic_unit}  Traj: positions{angstrom}   Bead:       12
H 1.3692024294815854 1.6395525888250946 1.3886049680525099
C 0.5728770413658446 0.7049971279785762 0.5907322245627457
H 0.0002630046311683724 0.1091815152680135 1.301380684275497
H 1.284780280528016 0.10653263257464046 0.022455601877934474
H -0.06312411102219442 1.3163440409738756 -0.04931604772605997
H 1.8245787588055795 2.1739766686923288 1.8448681070681308
6
CELL(abcABC):  200.000000 200.000000 200.000000 90.000000 90.000000 90.000000 cell{atomic_unit}  Traj: positions{angstrom}   Bead:       13
H 1.3763261200693007 1.6479128454833873 1.3957425021510248
C 0.5720792654927466 0.7040608704748024 0.5899328988524852
H 0.00033366616434176403 0.1093039309629962 1.3021171318678202
H 1.2855166676848784 0.10665367739987865 0.02252922497016239
H -0.06308630027942969 1.3170920912452322 -0.04927962255358766
H 1.8261165681282674 2.1757814183682043 1.8464089043242422
6
CELL(abcABC):  200.000000 200.000000 200.000000 90.000000 90.000000 90.000000 cell{atomic_unit}  Traj: positions{angstrom}   Bead:       14
H 1.3831865906547303 1.6559641903249953 1.4026163036313792
C 0.5712783249839066 0.7031208990726578 0.5891304024613864
H 0.00040414904965164393 0.10942623539222186 1.302855060798912
H 1.2862545375278016 0.10677460829327788 0.02260267657440065
H -0.06304874985730635 1.3178415912629646 -0.049243462029770216
H 1.8279542735192138 2.1779381218649796 1.848250180850618
6
CELL(abcABC):  200.000000 200.000000 200.000000 90.000000 90.000000 90.000000 cell{atomic_unit}  Traj: positions{angstrom}   Bead:       15
H 1.3897377103552315 1.663652484973781 1.4091801521575016
C 0.5704814192366175 0.7021856628779644 0.5883319487788825
H 0.00047401977502923757 0.10954755477832864 1.3035878840678883
H 1.286987303278305 0.10689456423065788 0.02267549627481692
H -0.0630115896013799 1.3185858845229745 -0.04920768278703851
H 1.8300593658282693 2.180408626822106 1.8503593641586153
6
CELL(abcABC):  200.000000 200.000000 200.000000 90.000000 90.000000 90.000000 cell{atomic_unit}  Traj: positions{angstrom}   Bead:       16
H 1.3959197284988927 1.6709076071168385 1.4153741811980638
C 0.5696989631370156 0.70126738464137 0.5875479729253136
H 0.0005425398367876302 0.10966649789088574 1.3043060201742274
H 1.287705383887779 0.10701217221164049 0.022746906598036763
H -0.0629751216622553 1.3193152697515615 -0.04917256822337989
H 1.8323781053622994 2.1831298650390214 1.8526826099701506
6
CELL(abcABC):  200.000000 200.000000 200.000000 90.000000 90.000000 90.000000 cell{atomic_unit}  Traj: positions{angstrom}   Bead:       17
H 1.401638694725403 1.6776192981747111 1.4211042580521767
C 0.5689475862518923 0.7003855805656478 0.5867951367717554
H 0.0006083913669567635 0.10978069126479971 1.3049942111176627
H 1.2883935222847425 0.1071250874505796 0.02281552794316922
H -0.06293997607780137 1.320014273738679 -0.04913871906574149
H 1.8348234832177504 2.1859997240427567 1.8551327401066258
6
CELL(abcABC):  200.000000 200.000000 200.000000 90.000000 90.000000 90.000000 cell{atomic_unit}  Traj: positions{angstrom}   Bead:       18
H 1.406704861579946 1.6835648735562905 1.4261802668202395
C 0.5682590478082926 0.6995775227802791 0.5861052612264844
H 0.0006688758193309138 0.10988540910270654 1.3056234755875689
H 1.289022739207755 0.10722863811116598 0.022878544961716322
H -0.06290755459664515 1.3206534726780534 -0.04910748215334378
H 1.8372398798292098 2.188835570895504 1.8575538323632255
6
CELL(abcABC):  200.000000 200.000000 200.000000 90.000000 90.000000 90.000000 cell{atomic_unit}  Traj: positions{angstrom}   Bead:       19
H 1.4105517289390344 1.6880794976054676 1.4300346070767473
C 0.5677206343415736 0.6989456493530405 0.5855658022945776
H 0.0007163236891465113 0.1099673977015847 1.3061144370848206
H 1.289513663911922 0.10730971735925217 0.022927968615282634
H -0.06288198889723685 1.3211522299080691 -0.04908283980821
H 1.8392448548306732 2.191188579292089 1.8595627031702642
