4
CELL(abcABC):  300.000000 300.000000 300.000000 90.000000 90.000000 90.000000 cell{atomic_unit}  Traj: positions{atomic_unit}   Bead:       0
H -0.004865228691810496 -0.0004227996943344488 -0.00032550661596180184
H -0.00022525318260711803 -0.0004396857667044461 -0.0002405923745477993
H -0.0003193230925670283 -0.00042940408976434844 -0.00014474879572392565
H -0.0003820223325297181 -0.00039056329073713545 -4.710684117432541e-05
4
CELL(abcABC):  300.000000 300.000000 300.000000 90.000000 90.000000 90.000000 cell{atomic_unit}  Traj: positions{atomic_unit}   Bead:       1
H -0.0045383721948371435 -0.00038486026123827645 -0.0002950043758713494
H -0.00020766814167008733 -0.00039953070224923006 -0.00021796897685733935
H -0.0002925116458444672 -0.00038971265768815254 -0.0001311108744432872
H -0.00034862428025706654 -0.0003541643834825819 -4.26647381067533e-05
4
CELL(abcABC):  300.000000 300.000000 300.000000 90.000000 90.000000 90.000000 cell{atomic_unit}  Traj: positions{atomic_unit}   Bead:       2
H -0.003799186768918669 -0.0003099128309854131 -0.0002358853733987906
H -0.00017064547243360277 -0.0003208212072748805 -0.00017418659856408415
H -0.0002379364926086591 -0.000312322531013236 -0.00010474042546032988
H -0.00028187494553837345 -0.0002834482706844447 -3.407862053913639e-05
4
CELL(abcABC):  300.000000 300.000000 300.000000 90.000000 90.000000 90.000000 cell{atomic_unit}  Traj: positions{atomic_unit}   Bead:       3
H -0.002570721278270309 -0.00020190490435025076 -0.00015260063242402143
H -0.00011339772744446771 -0.00020842771963224533 -0.00011262039738455154
H -0.00015655982848115634 -0.00020250914068456908 -6.769737424326413e-05
H -0.00018437624123209329 -0.00018353792833558015 -2.202300641688454e-05
4
CELL(abcABC):  300.000000 300.000000 300.000000 90.000000 90.000000 90.000000 cell{atomic_unit}  Traj: positions{atomic_unit}   Bead:       4
H -0.0009146491461845284 -7.020391036726388e-05 -5.283118419729404e-05
H -3.990675497353414e-05 -7.234746261747412e-05 -3.89757465998496e-05
H -5.476791222712376e-05 -7.020821366455853e-05 -2.342391605266956e-05
H -6.426658453324753e-05 -6.357775346317269e-05 -7.619479682727833e-06
4
CELL(abcABC):  300.000000 300.000000 300.000000 90.000000 90.000000 90.000000 cell{atomic_unit}  Traj: positions{atomic_unit}   Bead:       5
H 0.0009146491461845276 7.020391036726369e-05 5.283118419729393e-05
H 3.990675497353414e-05 7.2347462617474e-05 3.897574659984935e-05
H 5.476791222712359e-05 7.020821366455842e-05 2.3423916052669855e-05
H 6.426658453324738e-05 6.357775346317264e-05 7.6194796827278015e-06
4
CELL(abcABC):  300.000000 300.000000 300.000000 90.000000 90.000000 90.000000 cell{atomic_unit}  Traj: positions{atomic_unit}   Bead:       6
H 0.0025707212782703093 0.00020190490435025067 0.00015260063242402135
H 0.00011339772744446786 0.00020842771963224525 0.0001126203973845513
H 0.00015655982848115634 0.00020250914068456905 6.769737424326444e-05
H 0.00018437624123209342 0.00018353792833558012 2.2023006416884513e-05
4
CELL(abcABC):  300.000000 300.000000 300.000000 90.000000 90.000000 90.000000 cell{atomic_unit}  Traj: positions{atomic_unit}   Bead:       7
H 0.0037991867689186696 0.0003099128309854129 0.0002358853733987905
H 0.00017064547243360182 0.00032082120727488047 0.0001741865985640839
H 0.00023793649260865884 0.000312322531013236 0.00010474042546033018
H 0.00028187494553837345 0.0002834482706844447 3.407862053913636e-05
4
CELL(abcABC):  300.000000 300.000000 300.000000 90.000000 90.000000 90.000000 cell{atomic_unit}  Traj: positions{atomic_unit}   Bead:       8
H 0.004538372194837143 0.0003848602612382764 0.0002950043758713493
H 0.00020766814167008703 0.00039953070224923 0.0002179689768573391
H 0.0002925116458444672 0.00038971265768815243 0.0001311108744432875
H 0.00034862428025706654 0.00035416438348258186 4.266473810675327e-05
4
CELL(abcABC):  300.000000 300.000000 300.000000 90.000000 90.000000 90.000000 cell{atomic_unit}  Traj: positions{atomic_unit}   Bead:       9
H 0.004865228691810495 0.0004227996943344484 0.0003255066159618018
H 0.00022525318260711738 0.00043968576670444607 0.00024059237454779906
H 0.00031932309256702804 0.0004294040897643484 0.00014474879572392595
H 0.00038202233252971794 0.00039056329073713545 4.7106841174325384e-05
