4
CELL(abcABC):  300.0 300.0 300.0 90.0 90.0 90.0 cell{atomic_unit}  Traj: positions{angstrom}   
H    -0.7000602  -0.0591976  -0.0453566  
H    -0.0319864  -0.0614432  -0.0335114  
H    -0.0450228  -0.0599261  -0.0201571  
H    -0.0536380  -0.0544554  -0.0065593  
4
CELL(abcABC):  300.0 300.0 300.0 90.0 90.0 90.0 cell{atomic_unit}  Traj: positions{angstrom}   
H    -0.6877431  -0.0581237  -0.0445294  
H    -0.0314153  -0.0603262  -0.0328999  
H    -0.0442124  -0.0588350  -0.0197892  
H    -0.0526681  -0.0534629  -0.0064395  
4
CELL(abcABC):  300.0 300.0 300.0 90.0 90.0 90.0 cell{atomic_unit}  Traj: positions{angstrom}   
H    -0.6697197  -0.0565548  -0.0433211  
H    -0.0305801  -0.0586945  -0.0320068  
H    -0.0430280  -0.0572413  -0.0192519  
H    -0.0512507  -0.0520132  -0.0062647  
4
CELL(abcABC):  300.0 300.0 300.0 90.0 90.0 90.0 cell{atomic_unit}  Traj: positions{angstrom}   
H    -0.6462009  -0.0545133  -0.0417497  
H    -0.0294918  -0.0565716  -0.0308453  
H    -0.0414857  -0.0551681  -0.0185531  
H    -0.0494059  -0.0501276  -0.0060373  
4
CELL(abcABC):  300.0 300.0 300.0 90.0 90.0 90.0 cell{atomic_unit}  Traj: positions{angstrom}   
H    -0.6173975  -0.0520216  -0.0398329  
H    -0.0281611  -0.0539812  -0.0294287  
H    -0.0396016  -0.0526389  -0.0177008  
H    -0.0471534  -0.0478275  -0.0057599  
4
CELL(abcABC):  300.0 300.0 300.0 90.0 90.0 90.0 cell{atomic_unit}  Traj: positions{angstrom}   
H    -0.5835204  -0.0491022  -0.0375886  
H    -0.0265990  -0.0509470  -0.0277700  
H    -0.0373919  -0.0496768  -0.0167030  
H    -0.0445133  -0.0451341  -0.0054352  
4
CELL(abcABC):  300.0 300.0 300.0 90.0 90.0 90.0 cell{atomic_unit}  Traj: positions{angstrom}   
H    -0.5447804  -0.0457775  -0.0350346  
H    -0.0248162  -0.0474925  -0.0258826  
H    -0.0348728  -0.0463052  -0.0155676  
H    -0.0415054  -0.0420688  -0.0050657  
4
CELL(abcABC):  300.0 300.0 300.0 90.0 90.0 90.0 cell{atomic_unit}  Traj: positions{angstrom}   
H    -0.5013886  -0.0420699  -0.0321887  
H    -0.0228235  -0.0436415  -0.0237797  
H    -0.0320604  -0.0425474  -0.0143025  
H    -0.0381496  -0.0386529  -0.0046540  
4
CELL(abcABC):  300.0 300.0 300.0 90.0 90.0 90.0 cell{atomic_unit}  Traj: positions{angstrom}   
H    -0.4536029  -0.0380053  -0.0290713  
H    -0.0206338  -0.0394210  -0.0214762  
H    -0.0289737  -0.0384300  -0.0129169  
H    -0.0344689  -0.0349106  -0.0042031  
4
CELL(abcABC):  300.0 300.0 300.0 90.0 90.0 90.0 cell{atomic_unit}  Traj: positions{angstrom}   
H    -0.4018177  -0.0336191  -0.0257097  
H    -0.0182657  -0.0348679  -0.0189924  
H    -0.0256390  -0.0339889  -0.0114229  
H    -0.0304952  -0.0308748  -0.0037170  
4
CELL(abcABC):  300.0 300.0 300.0 90.0 90.0 90.0 cell{atomic_unit}  Traj: positions{angstrom}   
H    -0.3464514  -0.0289483  -0.0221325  
H    -0.0157388  -0.0300207  -0.0163496  
H    -0.0220844  -0.0292620  -0.0098333  
H    -0.0262620  -0.0265797  -0.0031997  
4
CELL(abcABC):  300.0 300.0 300.0 90.0 90.0 90.0 cell{atomic_unit}  Traj: positions{angstrom}   
H    -0.2879296  -0.0240303  -0.0183687  
H    -0.0130728  -0.0249185  -0.0135689  
H    -0.0183380  -0.0242873  -0.0081608  
H    -0.0218030  -0.0220602  -0.0026555  
4
CELL(abcABC):  300.0 300.0 300.0 90.0 90.0 90.0 cell{atomic_unit}  Traj: positions{angstrom}   
H    -0.2267608  -0.0189069  -0.0144498  
H    -0.0102907  -0.0196043  -0.0106739  
H    -0.0144318  -0.0191069  -0.0064196  
H    -0.0171561  -0.0173542  -0.0020889  
4
CELL(abcABC):  300.0 300.0 300.0 90.0 90.0 90.0 cell{atomic_unit}  Traj: positions{angstrom}   
H    -0.1635068  -0.0136223  -0.0104096  
H    -0.0074174  -0.0141240  -0.0076893  
H    -0.0104001  -0.0137651  -0.0046246  
H    -0.0123619  -0.0125021  -0.0015048  
4
CELL(abcABC):  300.0 300.0 300.0 90.0 90.0 90.0 cell{atomic_unit}  Traj: positions{angstrom}   
H    -0.0987307  -0.0082209  -0.0062815  
H    -0.0044776  -0.0085234  -0.0046400  
H    -0.0062773  -0.0083066  -0.0027906  
H    -0.0074607  -0.0075443  -0.0009080  
4
CELL(abcABC):  300.0 300.0 300.0 90.0 90.0 90.0 cell{atomic_unit}  Traj: positions{angstrom}   
H    -0.0330152  -0.0027483  -0.0020998  
H    -0.0014971  -0.0028493  -0.0015511  
H    -0.0020986  -0.0027768  -0.0009328  
H    -0.0024942  -0.0025219  -0.0003035  
4
CELL(abcABC):  300.0 300.0 300.0 90.0 90.0 90.0 cell{atomic_unit}  Traj: positions{angstrom}   
H     0.0330152   0.0027483   0.0020998  
H     0.0014971   0.0028493   0.0015511  
H     0.0020986   0.0027768   0.0009328  
H     0.0024942   0.0025219   0.0003035  
4
CELL(abcABC):  300.0 300.0 300.0 90.0 90.0 90.0 cell{atomic_unit}  Traj: positions{angstrom}   
H     0.0987307   0.0082209   0.0062815  
H     0.0044776   0.0085234   0.0046400  
H     0.0062773   0.0083066   0.0027906  
H     0.0074607   0.0075443   0.0009080  
4
CELL(abcABC):  300.0 300.0 300.0 90.0 90.0 90.0 cell{atomic_unit}  Traj: positions{angstrom}   
H     0.1635068   0.0136223   0.0104096  
H     0.0074174   0.0141240   0.0076893  
H     0.0104001   0.0137651   0.0046246  
H     0.0123619   0.0125021   0.0015048  
4
CELL(abcABC):  300.0 300.0 300.0 90.0 90.0 90.0 cell{atomic_unit}  Traj: positions{angstrom}   
H     0.2267608   0.0189069   0.0144498  
H     0.0102907   0.0196043   0.0106739  
H     0.0144318   0.0191069   0.0064196  
H     0.0171561   0.0173542   0.0020889  
4
CELL(abcABC):  300.0 300.0 300.0 90.0 90.0 90.0 cell{atomic_unit}  Traj: positions{angstrom}   
H     0.2879296   0.0240303   0.0183687  
H     0.0130728   0.0249185   0.0135689  
H     0.0183380   0.0242873   0.0081608  
H     0.0218030   0.0220602   0.0026555  
4
CELL(abcABC):  300.0 300.0 300.0 90.0 90.0 90.0 cell{atomic_unit}  Traj: positions{angstrom}   
H     0.3464514   0.0289483   0.0221325  
H     0.0157388   0.0300207   0.0163496  
H     0.0220844   0.0292620   0.0098333  
H     0.0262620   0.0265797   0.0031997  
4
CELL(abcABC):  300.0 300.0 300.0 90.0 90.0 90.0 cell{atomic_unit}  Traj: positions{angstrom}   
H     0.4018177   0.0336191   0.0257097  
H     0.0182657   0.0348679   0.0189924  
H     0.0256390   0.0339889   0.0114229  
H     0.0304952   0.0308748   0.0037170  
4
CELL(abcABC):  300.0 300.0 300.0 90.0 90.0 90.0 cell{atomic_unit}  Traj: positions{angstrom}   
H     0.4536029   0.0380053   0.0290713  
H     0.0206338   0.0394210   0.0214762  
H     0.0289737   0.0384300   0.0129169  
H     0.0344689   0.0349106   0.0042031  
4
CELL(abcABC):  300.0 300.0 300.0 90.0 90.0 90.0 cell{atomic_unit}  Traj: positions{angstrom}   
H     0.5013886   0.0420699   0.0321887  
H     0.0228235   0.0436415   0.0237797  
H     0.0320604   0.0425474   0.0143025  
H     0.0381496   0.0386529   0.0046540  
4
CELL(abcABC):  300.0 300.0 300.0 90.0 90.0 90.0 cell{atomic_unit}  Traj: positions{angstrom}   
H     0.5447804   0.0457775   0.0350346  
H     0.0248162   0.0474925   0.0258826  
H     0.0348728   0.0463052   0.0155676  
H     0.0415054   0.0420688   0.0050657  
4
CELL(abcABC):  300.0 300.0 300.0 90.0 90.0 90.0 cell{atomic_unit}  Traj: positions{angstrom}   
H     0.5835204   0.0491022   0.0375886  
H     0.0265990   0.0509470   0.0277700  
H     0.0373919   0.0496768   0.0167030  
H     0.0445133   0.0451341   0.0054352  
4
CELL(abcABC):  300.0 300.0 300.0 90.0 90.0 90.0 cell{atomic_unit}  Traj: positions{angstrom}   
H     0.6173975   0.0520216   0.0398329  
H     0.0281611   0.0539812   0.0294287  
H     0.0396016   0.0526389   0.0177008  
H     0.0471534   0.0478275   0.0057599  
4
CELL(abcABC):  300.0 300.0 300.0 90.0 90.0 90.0 cell{atomic_unit}  Traj: positions{angstrom}   
H     0.6462009   0.0545133   0.0417497  
H     0.0294918   0.0565716   0.0308453  
H     0.0414857   0.0551681   0.0185531  
H     0.0494059   0.0501276   0.0060373  
4
CELL(abcABC):  300.0 300.0 300.0 90.0 90.0 90.0 cell{atomic_unit}  Traj: positions{angstrom}   
H     0.6697197   0.0565548   0.0433211  
H     0.0305801   0.0586945   0.0320068  
H     0.0430280   0.0572413   0.0192519  
H     0.0512507   0.0520132   0.0062647  
4
CELL(abcABC):  300.0 300.0 300.0 90.0 90.0 90.0 cell{atomic_unit}  Traj: positions{angstrom}   
H     0.6877431   0.0581237   0.0445294  
H     0.0314153   0.0603262   0.0328999  
H     0.0442124   0.0588350   0.0197892  
H     0.0526681   0.0534629   0.0064395  
4
CELL(abcABC):  300.0 300.0 300.0 90.0 90.0 90.0 cell{atomic_unit}  Traj: positions{angstrom}   
H     0.7000602   0.0591976   0.0453566  
H     0.0319864   0.0614432   0.0335114  
H     0.0450228   0.0599261   0.0201571  
H     0.0536380   0.0544554   0.0065593  
